14

O -2.1693323 -0.2571977 -1.4728885
C -0.06419837 -0.23295291 0.12593365
C -1.1531336 0.17650315 -1.1248498
C 0.25439858 1.0411612 0.88027126
N 0.9433702 -0.4834582 -0.92034197
C -0.23657168 -1.3937817 0.8332833
O 0.607671 2.0698078 0.0069380254
H 1.31024 1.737273 -0.5416609
H 0.751967 -1.389225 -1.3293905
H -0.050935507 0.28043348 -1.788926
H -0.61881274 1.3848974 1.4756544
H -0.4207977 -2.3197074 0.32635745
H -0.21252291 -1.3946224 1.9355553
H 1.0586579 0.7808693 1.5940641
