14

O -2.1856081 -1.7383237 -0.3609222
C -0.18338098 -0.062070247 0.12321609
C -1.1820096 -1.199336 -0.60940063
C 0.039131425 1.1240573 -0.805691
N 0.92366487 -1.0018079 -0.023811549
C -0.22159286 0.17882836 1.4877053
O 1.2320037 1.7886728 -0.48338374
H -0.00090774917 -1.633952 -1.032472
H -0.14893869 1.1851856 1.9007565
H 1.9305521 1.1195148 -0.5248493
H 0.06285404 0.762467 -1.8259312
H -0.32299256 -0.6377733 2.2030067
H -0.7652395 1.8597596 -0.6956331
H 0.82246363 -1.7452226 0.64741
