14

O -0.4836584 -2.531175 -2.890289
C -1.7056602 -2.875925 -3.494111
C -2.7702787 -3.1885047 -2.479711
C -3.4359248 -4.346905 -2.4242218
N -2.90499 -2.1398318 -1.5473542
C 15.164335 18.392963 15.808088
O 14.573047 17.914875 14.9668455
H -0.70718634 -2.1398854 -2.036027
H -2.0559087 -2.0556023 -4.135181
H -1.5301007 -3.7506652 -4.1430964
H -3.189996 -5.1643276 -3.1018524
H -4.225583 -4.5267196 -1.697294
H -3.6167772 -2.3315222 -0.83415276
H -3.1113174 -1.256777 -1.9916422
