14

O 2.195084 -0.28233975 0.13094644
C 1.2178075 0.27357692 -0.7048838
C -0.16641639 0.09346159 -0.10516049
C -0.50789285 -1.1448008 0.6608016
N -0.18622488 0.104958825 1.3623774
C -1.3108455 0.7522379 -0.7911241
O -2.3463821 1.0074797 -0.22351709
H 1.9397205 -0.031048236 1.0352583
H 1.3962637 1.3370373 -0.8884346
H 1.280055 -0.24523541 -1.6650294
H 0.24953157 -1.9158897 0.73398423
H -1.5453862 -1.4783677 0.64187807
H -1.0558736 0.54224306 1.675939
H -1.1594409 0.9866863 -1.8630358
