14

O 0.61377597 2.251084 1.6301271
C 0.07039384 0.23077211 -0.051654845
C 0.24934414 1.2013117 1.3381516
C 0.74504405 0.43324596 -1.2319679
N 0.9421833 -0.7751387 0.5978507
C -1.3499483 -0.3124733 -0.13586903
O -1.3687005 -1.5084046 -0.89185244
H -1.9914626 0.39247268 -0.6537678
H -1.7301433 -0.49591342 0.878566
H 1.8873128 -0.40415826 0.5938438
H 0.2635166 0.29204655 -2.2002552
H -0.7014932 -2.0741587 -0.5022574
H 1.7823976 0.80350906 -1.2099653
H 0.5877795 -0.034195237 1.8390504
