14

O 2.1982656 -0.2808366 0.12732093
C 1.2170312 0.2689697 -0.702201
C -0.16849443 0.092811346 -0.0947887
C -0.50431365 -1.1441565 0.65928596
N -0.19816913 0.10103957 1.3638036
C -1.3072634 0.7460975 -0.7889811
O -2.3527217 1.0126623 -0.22822678
H 1.9422158 -0.03587064 1.0365537
H 1.3960236 1.3426809 -0.89041495
H 1.2839111 -0.24437666 -1.6628448
H 0.24783307 -1.913079 0.7376801
H -1.5420927 -1.4831591 0.6432439
H -1.0589603 0.544991 1.6633162
H -1.1532652 0.99222624 -1.8637474
