14

O 2.1951797 -0.28710502 0.13748184
C 1.2109073 0.2687164 -0.70271796
C -0.16257526 0.09276976 -0.10289281
C -0.5105891 -1.1498368 0.65793097
N -0.19664729 0.09944963 1.3618802
C -1.30587 0.75119954 -0.79727477
O -2.350658 1.012481 -0.23405804
H 1.9449903 -0.028316278 1.0336441
H 1.3988519 1.3456051 -0.884962
H 1.2852206 -0.24621567 -1.6612763
H 0.24824989 -1.9207641 0.7362381
H -1.5423042 -1.4804617 0.64290106
H -1.0526412 0.5513632 1.6715493
H -1.1621145 0.991115 -1.8584437
