14

O 2.206693 -0.27824372 0.13994758
C 1.2173189 0.27093604 -0.6986283
C -0.16924721 0.09151788 -0.1002807
C -0.5036868 -1.1493167 0.65695834
N -0.19869527 0.09161041 1.3574415
C -1.3107216 0.7494879 -0.79456675
O -2.3553977 1.0272717 -0.23449335
H 1.9401343 -0.029589148 1.0427803
H 1.4002056 1.332817 -0.89018047
H 1.2807236 -0.24568419 -1.6641196
H 0.2500443 -1.9176357 0.7337512
H -1.5448431 -1.4778187 0.6370696
H -1.0488268 0.5500219 1.6738838
H -1.1637009 0.9846251 -1.8595632
