14

O -0.4810189 -2.5230825 -2.8910708
C -1.7063093 -2.8802793 -3.5013335
C -2.774961 -3.1907675 -2.4821503
C -3.4346886 -4.3556943 -2.4226737
N -2.9102197 -2.1455488 -1.5379537
C 15.164191 18.390612 15.806975
O 14.572574 17.923424 14.96643
H -0.704448 -2.1405735 -2.0377073
H -2.0577884 -2.057735 -4.149112
H -1.5323553 -3.744029 -4.1422086
H -3.1892467 -5.15297 -3.1032662
H -4.2202363 -4.5316057 -1.6875507
H -3.6156518 -2.3362758 -0.8360728
H -3.1098404 -1.2554759 -1.9823042
