14

O 2.198585 -0.28065026 0.13993971
C 1.222192 0.2721519 -0.70140225
C -0.1653015 0.092921354 -0.09734659
C -0.5101272 -1.1466556 0.6580369
N -0.19245061 0.09620391 1.3641465
C -1.3090063 0.75129867 -0.7952459
O -2.3549888 1.0096953 -0.23215872
H 1.9317783 -0.026862368 1.0405614
H 1.3961556 1.3349907 -0.89087075
H 1.2805053 -0.25352582 -1.666197
H 0.25117284 -1.9148549 0.7353049
H -1.5364939 -1.4763002 0.6425269
H -1.0541998 0.55083084 1.6645089
H -1.157821 0.9907564 -1.8618041
