14

O 2.1990807 -0.28154173 0.13587075
C 1.2141621 0.27194667 -0.70414895
C -0.16602235 0.08627475 -0.09972539
C -0.5106506 -1.1446052 0.6606106
N -0.19246683 0.10112203 1.3602965
C -1.3120433 0.7518456 -0.7897699
O -2.3478174 1.0193087 -0.22975257
H 1.9438651 -0.032816023 1.0335879
H 1.3929428 1.3416454 -0.88599044
H 1.2814156 -0.24978384 -1.6619934
H 0.2538902 -1.9109963 0.7387796
H -1.5396323 -1.4797665 0.6405371
H -1.056318 0.5426288 1.6691134
H -1.1604055 0.9847378 -1.8674151
