14

O 2.1999424 -0.28028712 0.13197216
C 1.2065783 0.26898277 -0.69852483
C -0.16409405 0.091949664 -0.09691058
C -0.51110655 -1.1434402 0.65262216
N -0.18978085 0.100949496 1.3584349
C -1.3148204 0.74537486 -0.7906259
O -2.351814 1.0158303 -0.23154564
H 1.944349 -0.028487626 1.0329807
H 1.399874 1.3370548 -0.8862268
H 1.2839793 -0.24154325 -1.6601461
H 0.24572086 -1.9143183 0.7388343
H -1.5389472 -1.480085 0.6440513
H -1.0499507 0.545175 1.6724023
H -1.15993 0.9828443 -1.8673182
