14

O 2.1992185 -0.2783109 0.13169271
C 1.2133046 0.27330095 -0.7029183
C -0.16496705 0.09027981 -0.09983125
C -0.5051306 -1.143409 0.6599354
N -0.20141064 0.09436016 1.3600172
C -1.310065 0.7515609 -0.78751904
O -2.3523192 1.0219852 -0.23642601
H 1.9341142 -0.029840207 1.0338277
H 1.4003145 1.3381091 -0.8907298
H 1.28852 -0.2585962 -1.658572
H 0.24895938 -1.9136714 0.7456422
H -1.538111 -1.4743218 0.6423037
H -1.0523754 0.55055887 1.6719922
H -1.1600521 0.9779944 -1.8694148
