14

O 2.1995006 -0.28030476 0.13039772
C 1.2160846 0.2740723 -0.7013213
C -0.164687 0.0952153 -0.096538074
C -0.50727797 -1.1394945 0.6572133
N -0.20177059 0.091676794 1.3622906
C -1.3145463 0.7439662 -0.78922904
O -2.3508894 1.0142817 -0.23169729
H 1.9448955 -0.031079642 1.0453305
H 1.3920029 1.3442196 -0.88637686
H 1.2816672 -0.24840595 -1.668717
H 0.25437927 -1.9184663 0.73120755
H -1.5404269 -1.486222 0.6391001
H -1.0535438 0.5527483 1.6654972
H -1.1553875 0.98779315 -1.8571575
