14

O -0.48029077 -2.531122 -2.8876677
C -1.7075663 -2.8768854 -3.4976985
C -2.7710416 -3.1934524 -2.4751017
C -3.4363437 -4.344773 -2.4296632
N -2.9062102 -2.142143 -1.5427518
C 15.164334 18.388441 15.801418
O 14.563868 17.918354 14.959746
H -0.70204544 -2.135648 -2.0318089
H -2.0504782 -2.0620482 -4.1419544
H -1.5349954 -3.748197 -4.1370335
H -3.1881595 -5.15833 -3.0963705
H -4.2262673 -4.530755 -1.6993998
H -3.611746 -2.3286016 -0.8314543
H -3.1130557 -1.2548419 -1.9902627
