14

O 1.075675 1.6552181 -1.0090892
C 0.3363276 0.50457436 -1.2287682
C -0.21419832 -0.050936863 0.07681067
C -0.6016648 -1.6815926 -0.12311907
N 0.9131472 -0.48844013 0.93674135
C -0.9244478 0.8097858 0.8901251
O -1.4723753 -2.4136264 0.017373983
H -0.5078593 0.78361315 -1.8798515
H -1.3210495 0.493392 1.8473823
H 0.91683435 -0.2736288 -1.7306405
H 0.6791234 -1.7787592 0.23584329
H -1.1696105 1.8301467 0.5532024
H 0.50877935 -0.8138859 1.8049195
H 1.7813187 1.4241395 -0.39092985
