14

O 2.1984031 -0.28318408 0.14027257
C 1.2111646 0.26891148 -0.69639134
C -0.16006778 0.09153243 -0.1060566
C -0.5051834 -1.1364834 0.6585866
N -0.19746675 0.09009213 1.361121
C -1.3159647 0.7449675 -0.7944326
O -2.3550699 1.0155467 -0.23472714
H 1.944119 -0.032959774 1.0407073
H 1.3907927 1.3359925 -0.88561606
H 1.2879248 -0.24645054 -1.6652458
H 0.25294837 -1.9104816 0.7428333
H -1.5379939 -1.4738907 0.6423219
H -1.0514405 0.54649353 1.6603751
H -1.1621654 0.9899138 -1.8637486
