14

O -2.177669 0.33606032 1.7520146
C 0.88366604 -0.6835504 1.00643
C -0.26336008 -0.62913185 -1.2146472
C -1.5150226 0.4644182 0.7998788
N 0.43093726 1.3054049 0.16453002
C -0.057461917 -0.10946636 0.20764548
O 0.9385037 -0.6282453 -1.9295667
H -0.5882707 -1.666463 -1.1801921
H 0.61751807 1.6253129 1.102847
H 1.2540002 0.2833663 -1.8965689
H -1.0207438 1.5892466 0.19338703
H -1.0285015 -0.037526943 -1.7009708
H 1.4611825 -1.548803 0.6771152
H 1.065222 -0.30062255 2.0180972
