14

O -0.48235738 -2.5286195 -2.885397
C -1.7045009 -2.8766954 -3.5047257
C -2.7796097 -3.1887655 -2.4795384
C -3.4410052 -4.3443284 -2.422787
N -2.9133856 -2.1463149 -1.5337893
C 15.1612835 18.392796 15.7980585
O 14.572594 17.91748 14.958306
H -0.70650756 -2.1358113 -2.0365727
H -2.0513647 -2.0555625 -4.146831
H -1.5317235 -3.7450418 -4.1404166
H -3.1836808 -5.1623855 -3.097757
H -4.2147174 -4.5314426 -1.68827
H -3.6068892 -2.3395154 -0.8314503
H -3.1181345 -1.2557927 -1.9888299
