14

O -0.592289 1.2569509 -2.478901
C 0.7044675 1.1513793 0.639644
C -0.6461624 0.51582795 -1.5652837
C 0.6524214 -1.2278868 -0.11196287
N -1.2640904 0.17850597 0.53380704
C 0.07959508 0.198704 -0.11251302
O 0.8579311 -1.6820959 1.1982331
H -1.6976943 0.015004505 -0.91704357
H -1.5950553 1.1660185 0.5713334
H -0.0019442384 -1.629667 1.6424063
H -0.01566888 -1.8705139 -0.6877874
H 1.6324655 -1.2092354 -0.6054364
H 1.6066959 0.9597481 1.2139142
H 0.2793283 2.17726 0.6795897
