14

O -0.47418645 -2.5216858 -2.8872607
C -1.7131243 -2.8783276 -3.50013
C -2.762531 -3.189326 -2.4757752
C -3.4319787 -4.346912 -2.4196293
N -2.9133792 -2.1393194 -1.5504112
C 15.152836 18.391357 15.804778
O 14.575684 17.911037 14.9624815
H -0.71301174 -2.1323903 -2.033825
H -2.0518644 -2.052574 -4.1372786
H -1.5296104 -3.7496939 -4.142995
H -3.193524 -5.165498 -3.1023595
H -4.2276196 -4.530869 -1.69622
H -3.6121511 -2.3346324 -0.8333008
H -3.1055386 -1.2611665 -1.988072
