14

O 2.1485415 -0.03734134 0.3926512
C -0.23746127 -0.04294154 0.17070104
C 0.9911772 0.7373957 0.6024491
C 0.056378536 -0.36693782 -1.5784835
N -0.29664114 -1.3110645 0.71884906
C -1.5242418 0.5079075 0.36288306
O -0.36786553 -1.3480359 -2.1270244
H 1.1129779 1.6548175 0.027374005
H 0.83626086 0.9911812 1.6580753
H -1.0550362 -1.8307755 0.27306125
H 0.5311273 0.5014363 -2.0212123
H -2.3686645 -0.008462056 -0.10250714
H -1.7356832 1.4558176 0.8721312
H 1.9091301 -0.9029971 0.7510521
