14

O 1.3891594 0.724365 2.168854
C -1.3022672 -0.51924783 -0.0004387661
C 0.5339852 0.7484914 1.3627776
C 0.20360497 -0.18206573 -0.07376196
N 0.41244668 1.0021112 -0.8869306
C 1.0763545 -1.1657256 -0.4841424
O -2.0581083 0.6252546 0.26679274
H 1.4101421 1.15867 -0.9606074
H -1.5596964 -0.99561805 -0.95448536
H -1.8079008 1.2648646 -0.3951696
H 0.73175913 -2.1671908 -0.76393914
H -1.4696624 -1.2274876 0.80754024
H 2.1372838 -0.9425394 -0.57094944
H 0.3028995 1.6761184 0.4844601
