14

O 2.2023845 -0.27926832 0.13586213
C 1.2160773 0.26418683 -0.6989482
C -0.17097196 0.09077141 -0.10383296
C -0.5030578 -1.1448168 0.65507615
N -0.1979073 0.092696846 1.3556204
C -1.3142335 0.7526149 -0.7920045
O -2.3499427 1.010013 -0.23241226
H 1.9444361 -0.035398297 1.0326773
H 1.396832 1.3463683 -0.87678415
H 1.2807363 -0.23969735 -1.6659359
H 0.2576184 -1.9205662 0.7441513
H -1.5385541 -1.4791881 0.6445246
H -1.058955 0.54739213 1.6677116
H -1.1644617 0.99489164 -1.8657056
