14

O -0.47467208 -2.526778 -2.8924515
C -1.7096486 -2.8664374 -3.4916477
C -2.7640297 -3.1862807 -2.4780216
C -3.4337249 -4.351973 -2.4282064
N -2.9147258 -2.149345 -1.537557
C 15.161054 18.380276 15.80509
O 14.569744 17.919659 14.964169
H -0.70673865 -2.1410818 -2.032526
H -2.056795 -2.0538306 -4.1455326
H -1.5334843 -3.748144 -4.140308
H -3.189027 -5.1619744 -3.101765
H -4.2252574 -4.520303 -1.699049
H -3.6075473 -2.3322606 -0.8354616
H -3.1151462 -1.2615281 -1.9867314
