14

O 2.2044008 -0.28256264 0.13814498
C 1.2179323 0.27403483 -0.6996948
C -0.1648324 0.08791268 -0.10499966
C -0.5062876 -1.1472337 0.65932053
N -0.20196213 0.094132036 1.3512079
C -1.3133271 0.74940914 -0.78713715
O -2.3478036 1.0176542 -0.23166515
H 1.9380953 -0.033095226 1.044178
H 1.3979084 1.3437403 -0.8880728
H 1.28823 -0.24154864 -1.661381
H 0.25186872 -1.9183623 0.735554
H -1.5394257 -1.4780098 0.6378775
H -1.053463 0.5460772 1.6656504
H -1.1713347 0.987852 -1.8589827
