14

O -0.48021212 -2.5272872 -2.894143
C -1.7083975 -2.8826807 -3.4940436
C -2.770813 -3.1934142 -2.4854913
C -3.434174 -4.3498077 -2.423
N -2.9040143 -2.1448708 -1.5418996
C 15.156376 18.388664 15.804694
O 14.568956 17.925095 14.965479
H -0.70782363 -2.1410115 -2.0370033
H -2.0560322 -2.0522242 -4.1468086
H -1.5347782 -3.7408516 -4.1356816
H -3.1858225 -5.162166 -3.0938432
H -4.2157445 -4.5256686 -1.6888676
H -3.6092334 -2.335761 -0.83899444
H -3.1182888 -1.258015 -1.9903952
