14

O -0.47789365 -2.5319977 -2.88327
C -1.7038344 -2.8813915 -3.4994466
C -2.7723057 -3.194502 -2.4788623
C -3.4390557 -4.34501 -2.4197187
N -2.9097362 -2.1418185 -1.5468094
C 15.168111 18.390423 15.810385
O 14.566093 17.923077 14.954675
H -0.7039767 -2.1381218 -2.0365107
H -2.0604568 -2.0533266 -4.1429706
H -1.5382957 -3.7472887 -4.146805
H -3.178597 -5.1646824 -3.0883236
H -4.2193584 -4.5304117 -1.7000028
H -3.611701 -2.3308632 -0.8382718
H -3.1189926 -1.2540858 -1.9840676
