14

O -0.48145896 -2.5306814 -2.887784
C -1.7084993 -2.8794029 -3.5000708
C -2.7755022 -3.1974852 -2.4754868
C -3.4332163 -4.343448 -2.4253798
N -2.9119856 -2.1421118 -1.5402179
C 15.160854 18.387833 15.805256
O 14.573495 17.921967 14.959446
H -0.7055223 -2.136031 -2.0344799
H -2.0585954 -2.0523405 -4.1525126
H -1.5286622 -3.7469478 -4.136813
H -3.1911242 -5.166578 -3.0957513
H -4.21597 -4.5272193 -1.6943997
H -3.6031704 -2.3335395 -0.83039254
H -3.1206415 -1.2540145 -1.9914129
