14

O -0.48827198 -2.535494 -2.8887753
C -1.7003256 -2.8816726 -3.4993284
C -2.7746685 -3.1882625 -2.4819381
C -3.4396582 -4.3494153 -2.4179137
N -2.913812 -2.1479604 -1.5434784
C 15.162146 18.38066 15.804256
O 14.567157 17.917227 14.952918
H -0.7055534 -2.1339881 -2.0328586
H -2.0476944 -2.0498302 -4.1452584
H -1.5329732 -3.7497206 -4.1400886
H -3.1926985 -5.154837 -3.0968342
H -4.2169657 -4.5234427 -1.6892053
H -3.6131246 -2.3360016 -0.83396876
H -3.103557 -1.247261 -1.9875243
