14

O 2.2059383 -0.27897197 0.13626885
C 1.2177999 0.26826364 -0.6998276
C -0.16351312 0.09696735 -0.10218274
C -0.51360404 -1.1430128 0.6536957
N -0.19580784 0.08974768 1.3620172
C -1.3152143 0.74875605 -0.7929052
O -2.3488772 1.0168433 -0.23816599
H 1.9417677 -0.033286966 1.039822
H 1.4008949 1.3390672 -0.88543975
H 1.2782358 -0.24411371 -1.6627506
H 0.25426048 -1.9213166 0.7377691
H -1.5409225 -1.4788351 0.6425817
H -1.0556145 0.549883 1.6678139
H -1.1653434 0.9900088 -1.8586968
