14

O -0.47759128 -2.5262153 -2.8879757
C -1.7016199 -2.8809774 -3.5019014
C -2.777297 -3.1916442 -2.481898
C -3.4390574 -4.34575 -2.4235594
N -2.9129295 -2.144017 -1.5380521
C 15.155477 18.392225 15.803938
O 14.567417 17.915483 14.962011
H -0.70522827 -2.1395998 -2.0347898
H -2.0548754 -2.0577621 -4.140233
H -1.5278769 -3.7441342 -4.145599
H -3.187486 -5.161844 -3.096255
H -4.219751 -4.52891 -1.6944107
H -3.609431 -2.3320282 -0.83666784
H -3.109753 -1.2548286 -1.9846067
