14

O 1.0132924 -0.8746453 1.7695518
C 0.86377233 1.2146018 -0.26710293
C -0.069944955 0.21453199 -0.10356379
C -0.19955498 -0.35570213 1.3073093
N 0.41372147 -0.8581631 -1.0069332
C -1.544616 0.19770315 -0.86067903
O -2.3101563 0.86352175 -1.4462826
H 1.4148536 1.647356 0.5555044
H 0.54288405 -0.43846163 -1.916267
H 1.3218005 -1.4718175 1.0831256
H -1.0604155 -1.0189493 -1.1768621
H -0.95341516 -1.1519284 1.3221887
H -0.5017511 0.42278203 2.0154638
H 1.0695298 1.6091709 -1.2754525
