14

O 2.2028964 -0.275493 0.13669121
C 1.2182604 0.2716824 -0.7058906
C -0.16571951 0.0925084 -0.09850573
C -0.5068259 -1.1410978 0.66167307
N -0.194161 0.09224754 1.3543563
C -1.3149283 0.7489401 -0.7940271
O -2.353387 1.006674 -0.22466192
H 1.9420431 -0.027767614 1.0409615
H 1.3982004 1.3359627 -0.8871951
H 1.2838693 -0.24511844 -1.6675122
H 0.2464419 -1.9136366 0.74213064
H -1.5454518 -1.4849471 0.6382414
H -1.049888 0.54377615 1.6680987
H -1.16135 0.9962693 -1.8643601
