14

O 2.2069693 -0.28326064 0.13307388
C 1.2096034 0.26910076 -0.7013181
C -0.16293085 0.09508918 -0.09793118
C -0.5093455 -1.1422536 0.6599309
N -0.20037256 0.093247175 1.3551208
C -1.3131394 0.75144804 -0.7894342
O -2.3473167 1.0093253 -0.22676738
H 1.9467221 -0.027230106 1.0325506
H 1.3972523 1.3403232 -0.8906901
H 1.281468 -0.25010845 -1.6583318
H 0.24799715 -1.9170371 0.7439027
H -1.5414296 -1.474774 0.63848215
H -1.0579121 0.54674757 1.6649194
H -1.1575655 0.9893828 -1.8635079
