14

O 2.1991696 -0.28217882 0.1390147
C 1.2126992 0.27256238 -0.7008368
C -0.16611305 0.0907615 -0.096918
C -0.5072618 -1.1417515 0.6584581
N -0.1919424 0.097441286 1.3662981
C -1.3148918 0.74605316 -0.78939486
O -2.3540392 1.0139921 -0.24089402
H 1.9362853 -0.030887764 1.035728
H 1.3957961 1.3378375 -0.88920766
H 1.2840915 -0.24647363 -1.6644423
H 0.25916904 -1.9176483 0.7370127
H -1.5402352 -1.4790796 0.6380842
H -1.0534791 0.5505013 1.6713573
H -1.1592481 0.9888706 -1.8642597
