14

O 2.1968985 -0.2776342 0.13473406
C 1.2189977 0.2727941 -0.70283407
C -0.1693121 0.09844263 -0.10136941
C -0.50385255 -1.1483561 0.6545621
N -0.2027628 0.090253 1.3608699
C -1.3090284 0.75322664 -0.7911097
O -2.3495448 1.015345 -0.2296165
H 1.9401286 -0.02768507 1.0427775
H 1.4021485 1.3353355 -0.8881049
H 1.2892866 -0.24522038 -1.6566736
H 0.2533452 -1.9132913 0.737329
H -1.5439876 -1.4841329 0.63406813
H -1.0581126 0.5427833 1.6739
H -1.1642035 0.98814 -1.8685328
