14

O 2.1945882 -0.28301033 0.1389612
C 1.2154322 0.26913613 -0.6995388
C -0.16349778 0.0850814 -0.10241875
C -0.5089827 -1.1386824 0.66126895
N -0.19758138 0.09691752 1.3535709
C -1.309681 0.75142604 -0.7883915
O -2.3508675 1.0117086 -0.23523027
H 1.9447824 -0.030580034 1.0370433
H 1.4013053 1.3343209 -0.88159114
H 1.285119 -0.24567458 -1.6676339
H 0.2480111 -1.9149485 0.73581237
H -1.5392816 -1.4771148 0.63920087
H -1.05333 0.54927117 1.6720775
H -1.166016 0.99214876 -1.863131
