14

O -0.47924006 -2.5222952 -2.886993
C -1.7022666 -2.877579 -3.4992332
C -2.7760441 -3.1894975 -2.4815671
C -3.4348574 -4.3554683 -2.4246838
N -2.9064586 -2.1433585 -1.5341772
C 15.163252 18.390766 15.79954
O 14.570162 17.916895 14.961581
H -0.70554245 -2.1309671 -2.0342958
H -2.0556073 -2.0582368 -4.1411853
H -1.5337471 -3.7491624 -4.1416826
H -3.192677 -5.165016 -3.098103
H -4.225431 -4.534636 -1.6938765
H -3.608194 -2.3283875 -0.83744615
H -3.113347 -1.2530556 -1.987875
