14

O -0.45764872 2.4906392 0.4757944
C 0.08646592 -1.1986227 0.6402671
C 0.07066114 -0.019811636 -0.31827778
C 1.1074904 0.2156633 -1.1843488
N -1.0576181 0.033379465 -1.0957196
C -0.1448091 1.429669 0.9109165
O -1.1411225 -1.3019305 1.3243389
H -1.7736745 -1.168645 0.63509554
H 0.18366493 1.1195658 1.8913981
H 0.2799186 -2.0840983 0.03455088
H 1.1036426 1.1315199 -1.7816204
H -1.0636874 0.9381706 -1.5482546
H 1.9325678 -0.47650787 -1.3722212
H 0.87414867 -1.1089916 1.3880808
