14

O -0.47694606 -2.5324965 -2.890267
C -1.7002809 -2.885434 -3.4937184
C -2.768359 -3.1911716 -2.4790018
C -3.437735 -4.3469005 -2.4245641
N -2.9111028 -2.1355262 -1.5417025
C 15.153683 18.39091 15.806856
O 14.5709095 17.915358 14.959459
H -0.7094731 -2.140187 -2.0382419
H -2.0533013 -2.060605 -4.143526
H -1.5351026 -3.744487 -4.1455917
H -3.1815622 -5.157551 -3.0956025
H -4.2183933 -4.5266547 -1.6935107
H -3.6202326 -2.331441 -0.8333422
H -3.1121037 -1.2538129 -1.9872458
