14

O -1.8794148 0.9412791 0.5220053
C -1.066113 0.72583425 -0.5769114
C 1.0159931 -0.6104138 -1.1411637
C 0.1926939 -0.08532701 -0.1891668
N -0.20628874 -1.1747564 0.7006038
C 0.8998024 0.70743686 1.1309958
O 1.9624714 1.0834539 1.4446492
H -2.0426946 0.07731756 0.9134976
H -0.7875754 1.7166202 -1.0002805
H 1.9042425 -1.1664591 -0.8496482
H -1.5497586 0.1274822 -1.367236
H 0.8321139 -0.4812045 -2.218867
H 0.10623517 -0.115831636 1.7524929
H 0.61829245 -1.7454314 0.8790293
