14

O 2.1962376 -0.27876064 0.14234285
C 1.2140439 0.27144113 -0.70022273
C -0.16039652 0.08809792 -0.102647655
C -0.5086674 -1.1424118 0.65478534
N -0.1985915 0.09746184 1.358423
C -1.308732 0.75279963 -0.79484814
O -2.3525774 1.0023866 -0.22568381
H 1.9386829 -0.028348552 1.0365746
H 1.3902004 1.339778 -0.88513553
H 1.2806671 -0.24425523 -1.6606902
H 0.25308135 -1.9182587 0.7410977
H -1.539485 -1.4865605 0.6369077
H -1.0420743 0.5560301 1.6657152
H -1.162389 0.99060017 -1.8666188
