14

O -0.4784288 -2.5347445 -2.8909981
C -1.7027993 -2.8759527 -3.4964375
C -2.7727733 -3.185694 -2.4772224
C -3.4368606 -4.3527822 -2.427
N -2.9084206 -2.151299 -1.5367721
C 15.162307 18.395788 15.804023
O 14.573203 17.921432 14.960897
H -0.70969117 -2.1333454 -2.034827
H -2.0606833 -2.0558882 -4.1420317
H -1.5315132 -3.7446003 -4.141909
H -3.1834497 -5.17151 -3.09818
H -4.22518 -4.5247207 -1.6991583
H -3.6140108 -2.3314364 -0.8380179
H -3.1116993 -1.2552514 -1.9823678
