14

O -2.2707908 -0.15578632 1.7044799
C -0.08776169 0.13719061 0.17942187
C -0.27891764 0.19196327 -1.3443055
C 0.72475713 1.0926788 0.7783777
N 0.62968004 -1.1202515 0.54682654
C -1.5212126 -0.4722475 0.86732936
O 0.9554893 0.19746114 -1.9949931
H -0.9011431 -0.6529753 -1.641318
H 0.8028638 -1.1022472 1.5389408
H 0.92657673 1.0548152 1.8378409
H -0.79570824 1.121991 -1.6172091
H 1.4377757 -0.58684224 -1.7091353
H -0.8067 -1.5784725 0.6708861
H 1.1850913 1.872723 0.18285747
