14

O 2.201858 -0.27666956 0.1365696
C 1.2097611 0.2719834 -0.6995887
C -0.16158247 0.08916868 -0.10644862
C -0.50897515 -1.1423173 0.6574221
N -0.20071545 0.08474279 1.3645544
C -1.3111265 0.7527305 -0.7919313
O -2.3499782 1.0193824 -0.23290397
H 1.9388639 -0.03376661 1.0379208
H 1.3966163 1.3440518 -0.8841526
H 1.2862833 -0.24449262 -1.6611023
H 0.25528327 -1.9160935 0.7336523
H -1.5418301 -1.4798257 0.6424187
H -1.0541023 0.54196507 1.6651639
H -1.1603558 0.9891404 -1.8615745
