14

O -0.47990867 -2.520522 -2.8974097
C -1.7037692 -2.8755314 -3.4976356
C -2.776849 -3.1951518 -2.4777777
C -3.4322526 -4.3450594 -2.4225452
N -2.910693 -2.1475327 -1.5412002
C 15.155649 18.385609 15.800239
O 14.567345 17.911556 14.961707
H -0.70595384 -2.1406236 -2.0387568
H -2.0579526 -2.0489259 -4.145564
H -1.5316811 -3.745846 -4.1386666
H -3.1822422 -5.165764 -3.0901587
H -4.2204456 -4.528728 -1.6922998
H -3.6068685 -2.3309 -0.8361015
H -3.1143792 -1.2525822 -1.9838285
