14

O 2.7226233 0.025331939 -0.58628255
C 0.16863672 -0.11533428 0.05124472
C 1.6189922 0.35250852 -0.6825146
C -0.8716251 -0.3566368 -1.0103999
N 0.07343494 1.2779692 0.5842428
C 0.13188958 -0.880592 1.1850084
O -2.1371794 -0.32976472 -0.41420454
H -2.2422318 0.5265541 -0.027855568
H 1.0476362 1.5198755 -0.5318839
H 0.7575716 1.3503515 1.345083
H 0.8790592 -0.7687758 1.9944142
H -0.62819993 -1.653395 1.3470192
H -0.7695386 0.39692044 -1.7943121
H -0.75106883 -1.3450122 -1.4595592
