14

O -0.4810332 -2.529796 -2.8993309
C -1.707057 -2.87571 -3.494278
C -2.7788897 -3.1899385 -2.4792545
C -3.4336472 -4.3461614 -2.4233546
N -2.9064827 -2.1420681 -1.5386971
C 15.158364 18.389914 15.811011
O 14.567861 17.919382 14.957726
H -0.70572 -2.1437979 -2.0354228
H -2.0596964 -2.0553732 -4.142026
H -1.5312595 -3.7506201 -4.1388206
H -3.1861353 -5.155266 -3.098969
H -4.217866 -4.527534 -1.6949683
H -3.611269 -2.3344202 -0.83725595
H -3.1071703 -1.2586118 -1.9863582
