14

O 2.1983745 -0.2798524 0.13739824
C 1.2200332 0.2748532 -0.7004139
C -0.16458927 0.09603122 -0.091859184
C -0.505553 -1.1485878 0.65524644
N -0.20346719 0.09756886 1.3572849
C -1.3104494 0.75476056 -0.7938667
O -2.3512118 1.0065885 -0.23277465
H 1.9404364 -0.028395263 1.0405238
H 1.3960719 1.3353817 -0.8876337
H 1.2795539 -0.24400622 -1.6595751
H 0.25708988 -1.9137422 0.73494613
H -1.5378705 -1.4809109 0.63586843
H -1.0573522 0.54243726 1.6665671
H -1.161066 0.98787355 -1.8617119
