14

O 2.1992805 -0.2868447 0.13234246
C 1.2129246 0.27207896 -0.6959018
C -0.15813966 0.09511746 -0.09562929
C -0.5057723 -1.1443514 0.6593089
N -0.20156083 0.09716092 1.3623024
C -1.3117788 0.7482591 -0.79664975
O -2.34875 1.0174178 -0.23220232
H 1.9483492 -0.029331218 1.0347492
H 1.3988008 1.340116 -0.8850835
H 1.2765629 -0.24696963 -1.6661507
H 0.25483814 -1.9150465 0.73750776
H -1.5449675 -1.4778405 0.64064974
H -1.0622848 0.5437465 1.6695803
H -1.1575018 0.98648685 -1.8648239
