14

O 0.5728462 -0.44066042 2.0919416
C -0.99127 -0.4364992 -1.4096491
C 1.3010467 0.5043384 -0.49906492
C 0.060201187 -0.04586425 -0.21098307
N -0.7480672 1.1734076 0.09171469
C -0.023127615 -1.0134059 0.9645527
O -0.9955359 -0.6141884 -2.546809
H 0.10599282 0.36599278 2.2677836
H -0.6064854 1.8213929 -0.67329645
H 2.1903665 0.27291387 0.089922704
H 1.4139036 1.2257298 -1.337967
H 0.5283007 -1.9294654 0.7302996
H -1.7501756 0.3734143 -0.68415225
H -1.0579962 -1.2571067 1.1257073
