14

O 0.67276907 -0.42113438 2.083916
C 0.021691803 -0.054238804 -0.20446798
C -0.30022034 -0.75185615 1.1330708
C 1.2442228 -0.3590727 -0.765735
N -0.0045373305 1.3970113 -0.02951128
C -1.3927962 0.074386925 -1.1310012
O -1.7672076 -0.2594202 -2.1887207
H 0.70855606 0.5409664 2.119109
H 1.5571818 0.14898793 -1.7048026
H 0.34736902 1.8110167 -0.88943917
H -0.2836616 -1.8361254 1.0104766
H -1.2949212 -0.43034348 1.4471157
H 1.9117016 -1.09635 -0.36948198
H -1.4201483 1.2361718 -0.5105283
