14

O -0.4818078 -2.5249283 -2.8863199
C -1.7049026 -2.8785954 -3.4942832
C -2.7715032 -3.1902728 -2.4785442
C -3.4346642 -4.3522267 -2.4242895
N -2.9072137 -2.1442175 -1.5402036
C 15.157144 18.389698 15.805016
O 14.571254 17.915638 14.9571495
H -0.70711666 -2.1311517 -2.0397367
H -2.0510716 -2.0534804 -4.141922
H -1.5248253 -3.7450988 -4.140064
H -3.1849709 -5.161263 -3.0953827
H -4.2236347 -4.53113 -1.6947802
H -3.6148376 -2.3384976 -0.8353834
H -3.1218493 -1.2544736 -1.9912556
