14

O 2.194105 -0.2800489 0.14001952
C 1.2166746 0.27847344 -0.6956225
C -0.16758138 0.09277484 -0.10175709
C -0.5025805 -1.1476988 0.65691674
N -0.19549389 0.094868846 1.3579211
C -1.310232 0.75273025 -0.78499997
O -2.3513868 1.0175261 -0.22830495
H 1.9364364 -0.03846492 1.0379058
H 1.3947898 1.3327695 -0.88192075
H 1.2814207 -0.23834929 -1.6689998
H 0.2572956 -1.9185735 0.73646206
H -1.5363009 -1.4760169 0.6346882
H -1.0573704 0.5426308 1.6679671
H -1.1597762 0.9873785 -1.8702755
