14

O 2.1998785 -0.27750045 0.14579234
C 1.2203557 0.26825735 -0.70228827
C -0.16031429 0.0877411 -0.098099165
C -0.50843877 -1.1456677 0.655592
N -0.1983677 0.099768266 1.3566039
C -1.3159499 0.7544155 -0.7897465
O -2.3446689 1.0166317 -0.23154546
H 1.9419658 -0.033417877 1.033125
H 1.3970492 1.3378161 -0.88207746
H 1.280386 -0.24747454 -1.6697638
H 0.24496976 -1.9176154 0.7422779
H -1.5480307 -1.4805614 0.64159936
H -1.049862 0.549707 1.6655847
H -1.1589727 0.9879 -1.8670543
