14

O -0.47481504 -2.5283341 -2.885369
C -1.700748 -2.8795571 -3.4951873
C -2.7762969 -3.1882176 -2.4773588
C -3.4429114 -4.3448668 -2.424649
N -2.9105897 -2.1448565 -1.5431188
C 15.153948 18.391573 15.803918
O 14.564594 17.914053 14.962468
H -0.7033734 -2.1318407 -2.0366223
H -2.0522194 -2.0595098 -4.144339
H -1.5249124 -3.7473614 -4.1365166
H -3.1886966 -5.1627283 -3.1029477
H -4.22162 -4.52718 -1.6924859
H -3.6067228 -2.330688 -0.8358744
H -3.1156383 -1.2604854 -1.9919147
