14

O -0.48261374 -2.5356 -2.8914404
C -1.7110969 -2.8809779 -3.498288
C -2.776233 -3.1932673 -2.4750352
C -3.4369237 -4.3476458 -2.4265978
N -2.9048362 -2.1430488 -1.5334988
C 15.156398 18.396097 15.805566
O 14.568331 17.927263 14.956522
H -0.7015131 -2.140416 -2.0445306
H -2.0558455 -2.0538163 -4.1398344
H -1.5375743 -3.7437067 -4.1409965
H -3.1824336 -5.160104 -3.1004193
H -4.212036 -4.5328755 -1.6908777
H -3.6107209 -2.3341007 -0.84088206
H -3.1129012 -1.2578045 -1.9796865
