14

O 2.19332 -0.27961418 0.13105987
C 1.217273 0.27424833 -0.69191825
C -0.16986209 0.085901484 -0.10320342
C -0.50758463 -1.1490848 0.6544576
N -0.1989882 0.0985135 1.356853
C -1.3064582 0.75106686 -0.78918225
O -2.343103 1.0199033 -0.23608324
H 1.9452732 -0.029406503 1.040717
H 1.3915567 1.33387 -0.8841611
H 1.2731274 -0.24599928 -1.6652907
H 0.25631496 -1.9192073 0.738689
H -1.5366099 -1.4724252 0.6522635
H -1.0577089 0.54289883 1.6682374
H -1.1565506 0.9893348 -1.8724384
