14

O 2.201993 -0.28625286 0.13479306
C 1.2127503 0.26795018 -0.70255935
C -0.16992743 0.08802461 -0.09654468
C -0.5088009 -1.1454469 0.662813
N -0.19784416 0.095249966 1.3592838
C -1.3057114 0.7574924 -0.78830415
O -2.349287 1.0124792 -0.22399533
H 1.941553 -0.026272424 1.0373927
H 1.3948349 1.3456526 -0.8894838
H 1.2827692 -0.24603222 -1.6698169
H 0.25563696 -1.9184268 0.73161936
H -1.5359768 -1.4814138 0.63756716
H -1.0581402 0.5459731 1.6703198
H -1.1638492 0.99102294 -1.8630849
