14

O -0.47827718 -2.529076 -2.8885372
C -1.7078941 -2.8879848 -3.5019472
C -2.7668297 -3.1926532 -2.4810166
C -3.4367664 -4.3516197 -2.4286067
N -2.9127207 -2.1390576 -1.5374373
C 15.159862 18.393974 15.808775
O 14.557914 17.921669 14.967743
H -0.69610626 -2.1370258 -2.0352936
H -2.060675 -2.0593958 -4.1487465
H -1.5272511 -3.7456286 -4.1361465
H -3.1855147 -5.1631303 -3.092969
H -4.2223454 -4.5239444 -1.6986278
H -3.6123614 -2.3325276 -0.83728135
H -3.111038 -1.253597 -1.9899088
