14

O -0.48279363 -2.5288622 -2.8881142
C -1.7021284 -2.8788905 -3.5009086
C -2.7669227 -3.1898766 -2.477689
C -3.4385092 -4.3485155 -2.4239388
N -2.9079576 -2.1476927 -1.5448189
C 15.158515 18.388538 15.810126
O 14.569668 17.918634 14.969438
H -0.71281755 -2.1314192 -2.037301
H -2.0600545 -2.0627854 -4.1555123
H -1.5256696 -3.7438753 -4.1444645
H -3.1890774 -5.158145 -3.1001153
H -4.223606 -4.535665 -1.6860814
H -3.6068342 -2.3319054 -0.8310374
H -3.1118114 -1.2495418 -1.9895812
