14

O 2.2030656 -0.2806774 0.13514769
C 1.2162768 0.26834032 -0.69678307
C -0.16635264 0.09239447 -0.105189964
C -0.5128825 -1.1366552 0.65631366
N -0.19842607 0.096494004 1.3595698
C -1.3142127 0.74956024 -0.7907594
O -2.34696 1.012226 -0.23380996
H 1.9453564 -0.032007974 1.0369773
H 1.3930526 1.3454845 -0.88933885
H 1.2797159 -0.24643432 -1.6690192
H 0.2528341 -1.9142164 0.7432364
H -1.5353853 -1.4824407 0.64569765
H -1.0538483 0.5447718 1.6747862
H -1.1622334 0.98316056 -1.8668284
