14

O 2.2029994 -0.28961948 0.13331896
C 1.2133701 0.26433402 -0.7067658
C -0.16594236 0.091365926 -0.10464965
C -0.50615597 -1.1400224 0.6607008
N -0.20257789 0.09778837 1.3652061
C -1.313509 0.7520325 -0.79740435
O -2.3459573 1.0115829 -0.2362856
H 1.9429102 -0.02550719 1.0383073
H 1.3977234 1.3410306 -0.8841228
H 1.2754906 -0.24666767 -1.6623368
H 0.25492424 -1.9133132 0.74254286
H -1.539942 -1.4773823 0.6425526
H -1.0562904 0.5459763 1.6696484
H -1.1570432 0.9884016 -1.8607122
