14

O -0.48526335 -2.531161 -2.895248
C -1.701696 -2.8841279 -3.5007987
C -2.7710366 -3.1936638 -2.4788508
C -3.4330997 -4.344486 -2.4268794
N -2.9088092 -2.1395326 -1.5399833
C 15.160399 18.39059 15.804191
O 14.559259 17.914581 14.963862
H -0.7069898 -2.1393507 -2.0263865
H -2.0592916 -2.0591435 -4.144246
H -1.5276893 -3.748628 -4.1418815
H -3.1903775 -5.1632056 -3.1046767
H -4.2198067 -4.5254564 -1.6952244
H -3.609994 -2.3272092 -0.8324146
H -3.1056037 -1.2492065 -1.9814652
