14

O 2.1949 -0.28993604 0.1324193
C 1.2126672 0.26005423 -0.70282286
C -0.16496418 0.09048836 -0.09655865
C -0.50962067 -1.14302 0.6629863
N -0.200592 0.096641876 1.3499119
C -1.3086332 0.7503788 -0.7991751
O -2.3512692 1.0216683 -0.22972205
H 1.9454346 -0.031078864 1.0376673
H 1.3971653 1.3390472 -0.8802669
H 1.2818972 -0.24032038 -1.6626394
H 0.24961571 -1.9178432 0.7389093
H -1.5357603 -1.4797562 0.6409115
H -1.0575111 0.5508251 1.6718823
H -1.1533291 0.99285126 -1.863503
