14

O -2.0976338 -0.8458283 -1.3883134
C -0.11683529 1.5839654 -0.4700217
C 1.3088989 -0.44943365 -0.18977809
C -1.2342108 -0.8407703 -0.5987767
N -0.5739 0.17609437 1.2699431
C -0.05164414 0.26251212 -0.055629566
O 1.2462243 -1.7261403 0.39383554
H 0.7084614 2.0879872 -0.9573542
H 0.91429925 -1.5735962 1.2919366
H -1.2102603 -1.0855623 0.6975277
H 1.552444 -0.58349746 -1.2370636
H 2.0431852 0.17292704 0.2978872
H -1.4376189 0.69811374 1.3011718
H -1.0514097 2.1232288 -0.35536468
