14

O 2.2015164 -0.27960122 0.12938793
C 1.2236251 0.2656474 -0.6972182
C -0.16615573 0.0888751 -0.098225415
C -0.5073729 -1.1473354 0.6627748
N -0.19278422 0.08849234 1.3601422
C -1.3102546 0.75443065 -0.79237336
O -2.3586583 1.0188514 -0.23276463
H 1.9444903 -0.031065783 1.0350157
H 1.389093 1.3373888 -0.88860697
H 1.2842479 -0.2459157 -1.6664996
H 0.25299564 -1.9136866 0.7389325
H -1.5423558 -1.473646 0.6413131
H -1.0611368 0.5448699 1.6688997
H -1.1572497 0.9926952 -1.8607779
