14

O 2.203893 -0.28061593 0.13369012
C 1.2235963 0.2713363 -0.70652753
C -0.16547866 0.08198497 -0.09716698
C -0.5032818 -1.1497698 0.6544042
N -0.1963987 0.09604369 1.361121
C -1.3079613 0.74840707 -0.7919783
O -2.3459938 1.0158155 -0.23492697
H 1.938349 -0.025163505 1.0411439
H 1.3866882 1.340489 -0.88410676
H 1.2828872 -0.24306998 -1.6564895
H 0.2499245 -1.914267 0.7337001
H -1.5384064 -1.4804739 0.6447916
H -1.0611404 0.5478315 1.669761
H -1.1666772 0.991452 -1.8674159
