14

O -0.48908365 -2.527914 -2.8946378
C -1.7030727 -2.8829062 -3.4957283
C -2.7722883 -3.1859891 -2.4818156
C -3.4305382 -4.3576636 -2.419481
N -2.9062376 -2.1363065 -1.5402788
C 15.159429 18.389374 15.798664
O 14.568139 17.920015 14.962793
H -0.7024325 -2.1400301 -2.0336032
H -2.0490777 -2.0588026 -4.1491604
H -1.532454 -3.7439346 -4.143909
H -3.191449 -5.1572447 -3.087031
H -4.2234387 -4.530798 -1.6948701
H -3.6063192 -2.3293457 -0.82989866
H -3.1211767 -1.2584548 -1.9910436
