14

O 2.2007647 -0.28090456 0.13720648
C 1.2192225 0.2670077 -0.7027872
C -0.16923307 0.095560454 -0.10568013
C -0.51132673 -1.1486825 0.65403926
N -0.19927299 0.10032976 1.3599391
C -1.3127928 0.75005424 -0.78352803
O -2.3518515 1.011742 -0.22923125
H 1.9455211 -0.023207113 1.0344226
H 1.3936423 1.3394587 -0.88112956
H 1.277943 -0.24189727 -1.6708555
H 0.2585199 -1.916614 0.74076766
H -1.5415927 -1.4827855 0.63633716
H -1.0508513 0.54163915 1.6754783
H -1.158692 0.9882986 -1.864979
