14

O -0.47923467 -2.5341935 -2.8862982
C -1.7003037 -2.8806584 -3.498067
C -2.7700818 -3.1897218 -2.4742365
C -3.4329755 -4.3430824 -2.4268653
N -2.9120564 -2.144591 -1.5407844
C 15.155182 18.3881 15.807427
O 14.570894 17.919773 14.96176
H -0.7113227 -2.1304157 -2.0393631
H -2.05606 -2.058034 -4.144213
H -1.5313305 -3.7490058 -4.1368933
H -3.188148 -5.1516266 -3.1045723
H -4.2226048 -4.527856 -1.6982651
H -3.6048348 -2.3389516 -0.83143413
H -3.117121 -1.2597377 -1.9881947
