14

O -0.48165628 -2.5291886 -2.8937182
C -1.7040005 -2.87827 -3.4954557
C -2.7695358 -3.1918306 -2.476739
C -3.429523 -4.3425417 -2.4240563
N -2.9128966 -2.1474414 -1.5426563
C 15.156516 18.384644 15.808602
O 14.564027 17.910774 14.96095
H -0.7036494 -2.1358829 -2.0362163
H -2.0613413 -2.0564785 -4.142619
H -1.5244944 -3.7389567 -4.137077
H -3.192702 -5.1578875 -3.1024108
H -4.2189074 -4.5289173 -1.698291
H -3.6089923 -2.3366902 -0.83685595
H -3.112845 -1.2513344 -1.9834539
