14

O -0.47567537 -2.5223231 -2.8871398
C -1.7015597 -2.8776364 -3.5017686
C -2.7760694 -3.192296 -2.4765227
C -3.4380443 -4.350268 -2.4167378
N -2.9115953 -2.1492412 -1.5478679
C 15.157303 18.38402 15.808756
O 14.5728855 17.917892 14.961212
H -0.7041434 -2.1340897 -2.0439
H -2.056565 -2.0585685 -4.1462736
H -1.5387383 -3.748929 -4.1464543
H -3.1857345 -5.159005 -3.0948224
H -4.220156 -4.5267563 -1.6901752
H -3.612312 -2.3300533 -0.8332974
H -3.109595 -1.2527466 -1.985007
