14

O -2.0384784 0.78658926 -1.7890917
C -1.0819304 0.84262925 -1.1366336
C -0.72072107 -1.239045 0.48777565
C -0.1785548 -0.1236994 -0.09840108
N -0.3489233 0.9068571 0.9451998
C 1.27394 -0.12849891 -0.5384681
O 2.1029673 -0.4754896 0.5422689
H -0.70839244 1.769336 -0.20672901
H 1.926016 0.18762326 1.2320023
H 1.4206073 -0.8866973 -1.3122602
H 1.5429909 0.8509918 -0.9497712
H -1.3031794 0.86413187 1.3221629
H -1.7487444 -1.2293243 0.82447803
H -0.13759695 -2.1254041 0.6774675
