14

O 2.1973176 -0.284774 0.13860582
C 1.2193283 0.27329096 -0.7052047
C -0.1664843 0.08955823 -0.100966334
C -0.5054315 -1.1457645 0.66055816
N -0.20134436 0.09903343 1.3584913
C -1.3116084 0.7514024 -0.78999764
O -2.351204 1.0175481 -0.23459218
H 1.9351248 -0.03373975 1.0376382
H 1.3961492 1.33925 -0.88894063
H 1.2843845 -0.24573627 -1.6683427
H 0.25305066 -1.9178904 0.74053127
H -1.5394939 -1.4806161 0.64575016
H -1.0538424 0.55012417 1.6651026
H -1.155946 0.9883139 -1.8586334
