14

O -0.48054466 -2.521523 -2.8892775
C -1.7105117 -2.880742 -3.4944654
C -2.7732825 -3.187013 -2.4719954
C -3.4396608 -4.350065 -2.4253757
N -2.9064155 -2.1466765 -1.5375777
C 15.161755 18.39256 15.803797
O 14.564861 17.91811 14.964749
H -0.71101564 -2.1353717 -2.0327673
H -2.057257 -2.056978 -4.149805
H -1.5325298 -3.744449 -4.1465282
H -3.1824396 -5.1681767 -3.1040747
H -4.214579 -4.5298586 -1.6916581
H -3.6076968 -2.3315256 -0.8350487
H -3.1106834 -1.2582842 -1.9899714
