14

O -0.8700483 -1.8958567 -0.75415564
C 0.22858684 -0.37457594 1.460741
C 0.9894553 1.424372 -0.39891523
C 0.13939542 0.06251337 0.1498778
N -1.108669 0.8789125 0.11196625
C 0.1456622 -0.9518762 -0.95853925
O 1.917174 2.035381 -0.12954389
H 1.0835431 -1.5294411 -0.9780349
H -1.7021555 -1.3973466 -0.71356636
H 0.28573593 -1.4203933 1.7022126
H -1.0949762 1.5020182 0.91777325
H 0.032280438 -0.44803357 -1.9210093
H -0.25613523 1.7722788 -0.7682954
H 0.21015093 0.34204763 2.2794893
