14

O 0.069182076 -2.4824953 1.334949
C -1.5105314 0.12762754 0.14791468
C -0.14285141 -0.12547816 0.047643553
C 0.48592353 -1.5159749 0.81806624
N 0.49322 0.68828315 1.0791799
C 0.5394868 0.10994893 -1.2763742
O 0.42146593 1.461956 -1.6290565
H 0.06873751 -0.47844988 -2.0580819
H -2.0445576 0.54393244 -0.70641613
H 0.7708399 1.9525917 -0.8633571
H -2.0394228 -0.022553762 1.072283
H 1.3248216 -0.59190565 1.2459064
H 1.5856894 -0.21054429 -1.1622242
H -0.0220031 0.5430622 1.9495672
