14

O 2.1978695 -0.28133744 0.1363219
C 1.2109051 0.26871157 -0.7011692
C -0.1629319 0.091482915 -0.098894656
C -0.505134 -1.141443 0.6535331
N -0.1949787 0.097020745 1.3592215
C -1.3080912 0.7490954 -0.79283047
O -2.3509011 1.0146538 -0.23074031
H 1.9399861 -0.031701237 1.0334395
H 1.3899981 1.3469895 -0.8842203
H 1.279537 -0.24841614 -1.6561676
H 0.25365788 -1.9119453 0.7387743
H -1.532595 -1.4810183 0.6431076
H -1.0632882 0.54368913 1.660758
H -1.1540335 0.98421836 -1.8611336
