14

O 2.0438387 -0.46362716 0.46883282
C -0.4909789 0.0043002977 1.5380445
C -0.23819855 -0.03390355 -0.16299653
C -1.3236189 -0.18285906 -0.99920136
N 0.11091827 1.4023044 -0.07760313
C 1.0342007 -0.8466124 -0.42748073
O -1.3912214 -0.20979144 2.2306364
H 0.83499134 -1.9176393 -0.28575203
H -2.2325964 0.3960439 -0.7997318
H -1.3527329 -0.8666377 -1.8089514
H 1.3084008 -0.6788324 -1.4809053
H 0.26520744 1.0258659 1.4263487
H -0.7696366 1.8945101 0.048709743
H 2.2014263 0.47687802 0.33005068
