14

O -1.4961393 0.046466447 -1.6619663
C 0.091053545 -0.13858049 0.1707104
C 1.7284269 0.17590044 0.41046393
C -0.17112751 -0.2954595 -1.3442906
N -0.23043537 1.2438664 0.5579061
C -0.65180737 -0.91875386 1.0173321
O 2.6281 -0.24190517 1.0008811
H 1.2708527 1.3900613 0.31691185
H -0.5178198 -0.81291723 2.09041
H -1.6528169 0.90787846 -1.2825252
H -1.3574634 -1.6751081 0.6543424
H -0.15804222 1.3196722 1.5779004
H -0.02910947 -1.3347399 -1.6305559
H 0.5463278 0.33361876 -1.8775204
