14

O -0.4811585 -2.5299864 -2.8895323
C -1.7083637 -2.8792067 -3.4956124
C -2.7718792 -3.1839356 -2.4803503
C -3.4381604 -4.3463306 -2.4272392
N -2.9194634 -2.1487038 -1.5390608
C 15.161757 18.385757 15.806577
O 14.572995 17.921137 14.964018
H -0.7012446 -2.1455474 -2.0331976
H -2.055263 -2.0508714 -4.1474466
H -1.5308326 -3.7479086 -4.1421223
H -3.1821127 -5.1653023 -3.0969229
H -4.214058 -4.528277 -1.6888617
H -3.6182315 -2.3303192 -0.8393315
H -3.113985 -1.2505063 -1.9909161
