14

O -0.47525162 -2.5335252 -2.8928382
C -1.7088137 -2.8892748 -3.4918625
C -2.7722962 -3.1917703 -2.4796653
C -3.4489806 -4.3484883 -2.4339328
N -2.912266 -2.1403065 -1.5403206
C 15.163456 18.390406 15.805146
O 14.578414 17.922333 14.961368
H -0.71252435 -2.131871 -2.0304701
H -2.0541193 -2.0568535 -4.1326566
H -1.5300266 -3.7469938 -4.1431327
H -3.1881733 -5.159123 -3.093627
H -4.226345 -4.526792 -1.6971188
H -3.6049418 -2.3324747 -0.83211905
H -3.1081316 -1.2552655 -1.9987695
