14

O -1.7902972 -1.1927738 0.58579993
C 0.28137243 -0.107906245 0.057369284
C -0.1760485 1.2701778 0.32717076
C -0.8247041 -1.0353506 -0.4347497
N 0.87179166 -0.56645167 1.1913669
C 1.1621975 0.41448942 -1.2461967
O 2.2716506 0.45214546 -1.5594292
H -1.1857225 1.3904421 0.7900453
H 0.55643344 1.993089 0.672451
H -1.3416159 -0.65931624 -1.28883
H 0.20956397 1.371566 -1.243932
H -1.2795297 -1.443721 1.3807273
H 1.5996212 0.12935136 1.4729029
H -0.3547132 -2.0157413 -0.70469546
