14

O -1.4912934 0.3787561 2.385192
C 1.1628046 0.7293303 -0.093549736
C -0.65540665 0.050316118 1.6459843
C -0.19129363 0.047868323 0.052390475
N -0.09512394 -1.3978264 0.08098522
C -1.0949082 0.27414706 -0.989204
O 1.7568992 0.4293621 -1.306031
H -0.8595611 0.9320644 -1.810158
H 1.048735 1.822243 -0.051717058
H -1.0321423 -1.7992045 0.11808508
H -2.0750308 -0.20400512 -0.9868111
H 1.7876027 0.4335316 0.75721955
H 1.7765588 -0.54284334 -1.3609636
H -0.037840266 -1.1537396 1.5585777
