14

O -0.47004133 -2.5297596 -2.8891125
C -1.7099634 -2.881726 -3.4976902
C -2.7728498 -3.1928477 -2.4716845
C -3.4387343 -4.3531184 -2.4246585
N -2.913604 -2.1396022 -1.5410094
C 15.153931 18.386375 15.805155
O 14.564757 17.924667 14.958002
H -0.6994297 -2.1464407 -2.0376878
H -2.0553403 -2.0548325 -4.1394234
H -1.5331479 -3.7404897 -4.1415052
H -3.1836448 -5.163781 -3.0956633
H -4.222008 -4.528675 -1.697986
H -3.606276 -2.3266037 -0.83854777
H -3.1136475 -1.2531674 -1.988187
