14

O 2.201323 -0.27957654 0.13933884
C 1.2161057 0.270679 -0.7058964
C -0.16096117 0.09058188 -0.108603485
C -0.5102929 -1.142211 0.6588305
N -0.1990194 0.094853334 1.3592972
C -1.3144088 0.7560742 -0.79569125
O -2.3531704 1.0099881 -0.23423801
H 1.94245 -0.029781582 1.0384804
H 1.391589 1.3422341 -0.88518596
H 1.2834523 -0.24696712 -1.6640584
H 0.25418833 -1.9195168 0.7403407
H -1.5427201 -1.4702657 0.643692
H -1.0505968 0.5395261 1.675978
H -1.1579388 0.9843818 -1.862284
