14

O 2.1994681 -0.28062165 0.13373026
C 1.2167975 0.2704676 -0.7028859
C -0.15886596 0.09420878 -0.10118203
C -0.5048419 -1.1446056 0.6542538
N -0.19947638 0.09663868 1.3665142
C -1.3116505 0.75270134 -0.78730994
O -2.353727 1.0065098 -0.22890165
H 1.9421277 -0.028745899 1.0356107
H 1.3944979 1.3430562 -0.8845379
H 1.2791933 -0.24105537 -1.6660237
H 0.2541129 -1.9200953 0.73072
H -1.544332 -1.4764698 0.644221
H -1.0544463 0.54385257 1.6663755
H -1.1588571 0.9841586 -1.8605846
