14

O -2.210573 0.00980157 0.3159819
C 0.18553746 0.12937708 0.0531178
C 0.23373556 1.4536731 -0.37403104
C -0.97522295 -0.31375125 0.926423
N 0.098034844 -0.5890495 -1.2276803
C 1.576144 -0.7550578 0.4589375
O 2.6745315 -0.5949335 0.7950969
H 1.0357683 1.795266 -1.0252383
H -0.9461482 0.21952371 1.8879259
H -2.1862168 -0.3737153 -0.5625359
H -0.5050339 2.1877549 -0.052113038
H 0.8322635 -0.25270042 -1.8371367
H -0.87215704 -1.3831658 1.1492122
H 1.0593367 -1.5330228 -0.50795984
