14

O 1.7150162 1.0621485 -0.96253866
C -0.81089866 -0.4796252 1.4932066
C 1.2780666 0.45472965 0.24977653
C -0.071936 -0.18265913 0.047495853
N -1.0847025 0.8270265 -0.22862032
C -0.22156444 -1.0690333 -1.0280367
O -1.2588401 -1.3649387 2.1193957
H -1.9751936 0.3840673 -0.43964648
H -1.2727599 0.7159161 1.2481164
H 1.1975564 1.152674 1.0688436
H -1.1727108 -1.5365525 -1.2302158
H 2.0393903 -0.29863566 0.50035524
H 1.018101 1.6861218 -1.1820976
H 0.62047607 -1.3512393 -1.656034
