14

O -0.48106948 -2.5270686 -2.8916826
C -1.7095327 -2.8783102 -3.4992404
C -2.7724872 -3.1895711 -2.4722605
C -3.4394045 -4.3472137 -2.4239218
N -2.911793 -2.1506603 -1.533583
C 15.157874 18.400412 15.804487
O 14.5715475 17.914387 14.958873
H -0.697825 -2.1304739 -2.0398026
H -2.0533848 -2.0577989 -4.1488338
H -1.528167 -3.745184 -4.143473
H -3.1865776 -5.1640906 -3.0992298
H -4.2224183 -4.531691 -1.6922264
H -3.6169043 -2.3368495 -0.8335145
H -3.109858 -1.255886 -1.9855897
