14

O -0.48068666 -2.533065 -2.8931105
C -1.7052873 -2.8845856 -3.4963822
C -2.7754338 -3.191611 -2.4823258
C -3.433755 -4.346777 -2.4251199
N -2.904616 -2.1385093 -1.5366808
C 15.158926 18.39302 15.815686
O 14.562302 17.916637 14.965637
H -0.7101455 -2.1442645 -2.038886
H -2.0571911 -2.0556238 -4.1488943
H -1.5276935 -3.7458575 -4.1386423
H -3.1886468 -5.15691 -3.1027143
H -4.214284 -4.5306544 -1.6905383
H -3.6043177 -2.3270786 -0.840258
H -3.11917 -1.25472 -1.9877697
