14

O 2.00973 1.505605 -0.9235211
C -0.13423172 0.23579748 0.031144612
C 1.4281576 0.52586067 -0.657074
C -1.0326496 1.250898 0.1758426
N -0.5383239 -0.43669707 -1.2043272
C 0.018657573 -0.7608991 1.1683464
O 0.76021683 -1.8992412 0.753225
H -0.98575157 -1.0288191 1.4810958
H 0.29534265 -2.2273784 -0.025768032
H -1.172293 1.9725114 -0.6262849
H -1.5877099 1.4118167 1.1115727
H -0.6595704 0.2759041 -1.9314319
H 0.560439 -0.314857 1.9956685
H 1.037987 -0.5105016 -1.3484886
