14

O -0.23519576 -0.5960513 2.0508022
C 0.025106356 0.1822089 -0.2021889
C 0.31409642 1.192311 -1.0929184
C -1.1025343 -1.0408529 -0.64686483
N 1.0964035 -0.8003279 -0.31330544
C -0.22224607 0.5560562 1.2713345
O -1.8967421 -1.1893116 -1.4838476
H 0.5740507 1.2456632 1.5602854
H 0.47175825 0.92717147 -2.1522224
H -0.081625946 -1.7868 -0.22058624
H 1.2548027 -0.98778576 -1.2845777
H 0.39671347 2.2500837 -0.80753326
H -1.2053999 1.0775762 1.4128066
H 0.6108127 -1.0299412 1.9088157
