14

O -0.47874364 -2.5255682 -2.887013
C -1.7027061 -2.8828046 -3.495341
C -2.7692778 -3.1915526 -2.4748054
C -3.43869 -4.3438888 -2.423311
N -2.904467 -2.1450837 -1.5397165
C 15.15639 18.388414 15.805809
O 14.568759 17.929903 14.962292
H -0.70011127 -2.140356 -2.0391815
H -2.0611737 -2.0591087 -4.1473427
H -1.5303202 -3.7448907 -4.1396365
H -3.190244 -5.161979 -3.0996785
H -4.2248936 -4.532839 -1.6928871
H -3.6091268 -2.3358586 -0.83659726
H -3.1153955 -1.2543892 -1.9925891
