14

O -0.74535215 2.2383103 -1.4478796
C -0.2072027 -0.00075237104 -0.23430572
C 1.25026 -0.031123854 -0.45676813
C -0.22978963 1.5999997 -0.6032496
N -0.82884085 -0.9466835 -0.9954493
C -0.5702486 -0.14213522 1.2705069
O -0.2554077 -1.4320494 1.6894531
H 1.8325777 -0.77646565 0.11341972
H -0.5569341 -0.7877786 -1.9774685
H -0.6546995 -2.0244367 1.0522041
H 1.6297908 0.10081956 -1.4773304
H 1.009118 1.5418634 -0.15552847
H -0.023716092 0.57196754 1.8756012
H -1.6495553 0.08846465 1.3467951
