14

O 2.203969 -0.28240553 0.13643962
C 1.2120607 0.2686948 -0.6975664
C -0.16593575 0.10193688 -0.10086973
C -0.50319654 -1.1402097 0.65966284
N -0.19514243 0.09834576 1.3535259
C -1.3134583 0.7490579 -0.79518396
O -2.3491156 1.0112439 -0.23297152
H 1.9470547 -0.028511863 1.0410961
H 1.388903 1.3445126 -0.87728107
H 1.2785912 -0.24984229 -1.6613903
H 0.24688841 -1.921239 0.73204607
H -1.5371227 -1.4790374 0.6386766
H -1.0498706 0.5436327 1.6661726
H -1.1636249 0.9838212 -1.8623564
