14

O 0.19219303 -1.9760867 0.90214807
C 0.7331319 1.3099862 -0.675515
C 0.109152906 0.24291354 -0.09277527
C 0.96019363 -0.84219575 0.55509996
N -0.7801086 -0.36954287 -1.1274484
C -1.2695202 0.4732569 0.9235423
O -1.7657212 1.4241112 1.4119838
H 1.7563924 -1.1134764 -0.17888996
H 0.1159184 2.1062121 -1.1339489
H -1.7472078 -0.40820187 0.08296535
H 1.4461023 -0.48301294 1.4564471
H -1.270789 0.39970043 -1.5699878
H -0.2796243 -2.2232049 0.10397965
H 1.7998863 1.4595406 -0.65760124
