14

O -1.7737575 -1.9753287 0.2678317
C -0.36352542 1.0529306 0.9808579
C -0.1569359 0.056886893 0.010655753
C -0.7383172 -1.5016297 0.6080627
N -1.0325327 0.41080987 -1.0333401
C 1.266293 -0.18266523 -0.49266484
O 1.6683185 0.9289657 -1.2259673
H 0.4169742 1.7557601 1.3004398
H -1.9663134 0.40636906 -0.65405566
H 0.9331552 1.1052184 -1.8500504
H 1.2495596 -1.1006699 -1.1234093
H 1.9623053 -0.31825668 0.32883412
H -1.3641434 1.1733323 1.4152304
H -0.10108063 -1.811723 1.4675752
