14

O -0.48028925 -2.5283406 -2.8948035
C -1.7042859 -2.8773613 -3.4992926
C -2.7705758 -3.1886451 -2.476217
C -3.4382052 -4.3460355 -2.4196596
N -2.9119172 -2.145129 -1.5394537
C 15.160057 18.393278 15.804516
O 14.563936 17.916405 14.955356
H -0.7065508 -2.13338 -2.0364
H -2.053195 -2.062287 -4.1431847
H -1.5279131 -3.745487 -4.143127
H -3.19211 -5.162057 -3.0910835
H -4.2181354 -4.5287766 -1.6983058
H -3.6077638 -2.33503 -0.8316362
H -3.1130538 -1.2571532 -1.9867045
