14

O 2.2011387 -0.27984318 0.1369199
C 1.2214586 0.26905057 -0.70335686
C -0.16799375 0.08921653 -0.0933592
C -0.5082382 -1.1402568 0.6571826
N -0.20077765 0.09363695 1.3576357
C -1.3145815 0.7515843 -0.7932462
O -2.3554966 1.0106847 -0.23518212
H 1.9413556 -0.029310951 1.0386189
H 1.3987652 1.3454808 -0.88915145
H 1.282908 -0.2540306 -1.6601386
H 0.25290745 -1.9191412 0.7376882
H -1.5417385 -1.4732822 0.6413648
H -1.049319 0.5483738 1.6715662
H -1.1603882 0.98783743 -1.8665417
