14

O 2.1941276 -0.28031805 0.1414383
C 1.2157769 0.2749841 -0.70203084
C -0.16874106 0.08440265 -0.10045124
C -0.4999677 -1.1459681 0.65508837
N -0.19164547 0.09692699 1.3635458
C -1.3092409 0.754158 -0.7952431
O -2.352725 1.0232909 -0.23234339
H 1.9413258 -0.036363404 1.0334159
H 1.3916075 1.3404149 -0.8845241
H 1.2851211 -0.2462822 -1.6625811
H 0.24893473 -1.9194973 0.7352735
H -1.5419873 -1.473489 0.636546
H -1.0558478 0.54576486 1.6718763
H -1.1567382 0.98197556 -1.8600104
