14

O 1.5674729 1.2113854 -1.9891679
C -0.5186764 -1.104134 -0.8955708
C -0.8894935 0.7941789 0.6897417
C 1.1550596 1.0206312 -0.93544453
N 1.091174 -0.63841474 0.57044864
C 0.005298082 -0.026607184 -0.20831774
O -1.5683539 -0.016609468 1.6011425
H 0.108268395 -1.7518878 -1.5058877
H -1.5798819 -1.3332821 -0.8286853
H -0.883275 -0.4973844 2.1024258
H -1.6654783 1.3082697 0.07051209
H 1.664588 -1.2112589 -0.042242065
H 1.7999498 0.649917 0.20017314
H -0.28665105 1.5951967 1.1708723
