14

O -0.48206222 -2.537161 -2.894043
C -1.7088901 -2.8740273 -3.4993703
C -2.7699387 -3.1990104 -2.4760916
C -3.4325411 -4.3455024 -2.4199188
N -2.902479 -2.1467295 -1.5399209
C 15.157439 18.391178 15.806949
O 14.569238 17.924753 14.96714
H -0.71501994 -2.1319144 -2.0373597
H -2.0595617 -2.0570266 -4.1427674
H -1.5373266 -3.7391396 -4.1482487
H -3.1916237 -5.159918 -3.099667
H -4.216056 -4.531485 -1.6946912
H -3.6032574 -2.3419046 -0.83526355
H -3.1079204 -1.252111 -1.9867443
