14

O 0.26253873 -1.4222453 1.6921498
C -1.1531109 0.967359 -0.9764464
C 1.3276697 0.7365318 0.028085139
C 0.063352324 0.21342258 -0.054634646
N 0.18712604 -0.8122334 -1.1069056
C -0.5770994 -0.40804926 1.2118838
O -1.3819548 1.9528501 -1.513735
H 0.65416664 -0.41780382 -1.9084224
H -1.5790652 -0.7459955 0.98214674
H -0.6460531 0.35753024 2.0056784
H 0.35096487 -2.0291853 0.97020906
H 1.8657686 0.7285546 0.97212404
H -1.1788743 -0.28467464 -1.4676071
H 1.8045704 1.1639384 -0.83452576
