14

O 2.2092204 -0.27838886 0.13736346
C 1.2209358 0.26834133 -0.6976453
C -0.15931289 0.0924548 -0.102593206
C -0.507071 -1.1467446 0.66102225
N -0.20089103 0.09164464 1.3486791
C -1.3094133 0.7510614 -0.79552007
O -2.3503544 1.0090137 -0.23480533
H 1.9327425 -0.027367244 1.038482
H 1.39746 1.3393 -0.88480186
H 1.2787338 -0.24350205 -1.6629525
H 0.24779981 -1.9160287 0.73845744
H -1.544473 -1.4808542 0.6440193
H -1.0555575 0.546611 1.6724136
H -1.159819 0.99445903 -1.8621188
