14

O 2.2007895 -0.28125244 0.13384953
C 1.2154963 0.2753203 -0.7027462
C -0.17080331 0.08712981 -0.09946024
C -0.5096993 -1.138744 0.6565279
N -0.20351286 0.09114479 1.3613609
C -1.3129634 0.75173557 -0.79287416
O -2.3491907 1.0153683 -0.22909008
H 1.9382678 -0.038266737 1.0369633
H 1.4004905 1.3425678 -0.888308
H 1.2760972 -0.23704985 -1.6659023
H 0.25261176 -1.9219035 0.7440004
H -1.5372432 -1.4768964 0.64124197
H -1.0442339 0.5457683 1.6695353
H -1.1561061 0.9850781 -1.8650985
