14

O -0.48632726 -2.5318592 -2.8958051
C -1.7080269 -2.8801436 -3.4961166
C -2.7638085 -3.1925728 -2.473761
C -3.4403846 -4.3478656 -2.4241476
N -2.9109378 -2.1466322 -1.5444132
C 15.15899 18.38772 15.799518
O 14.565281 17.916025 14.960877
H -0.7057064 -2.1333098 -2.0379548
H -2.0479336 -2.057234 -4.1395097
H -1.5295076 -3.7407966 -4.134146
H -3.1798 -5.162838 -3.1016364
H -4.2291183 -4.525704 -1.6898849
H -3.6109173 -2.3344016 -0.833819
H -3.111802 -1.2503893 -1.9891996
