14

O 2.2009203 -0.2785608 0.14013276
C 1.2142053 0.2704183 -0.6985569
C -0.16640031 0.09242125 -0.10159681
C -0.5051378 -1.1403434 0.6583827
N -0.19721554 0.09096817 1.3520803
C -1.3114762 0.7503323 -0.7955033
O -2.3469896 1.0132886 -0.23087662
H 1.9471426 -0.022127334 1.0429289
H 1.3972214 1.3360864 -0.8810265
H 1.2819389 -0.25179118 -1.6644642
H 0.24875171 -1.9144921 0.74083376
H -1.5453217 -1.4798166 0.6472936
H -1.0582097 0.5423691 1.6578684
H -1.1594293 0.99124694 -1.8674965
