14

O 2.1965663 -0.28021166 0.13568261
C 1.2114533 0.26582345 -0.7079906
C -0.16530183 0.09495202 -0.10308301
C -0.50379187 -1.1443912 0.65790236
N -0.19261292 0.09232659 1.3624475
C -1.3097749 0.7526212 -0.7851217
O -2.3488243 1.0193058 -0.23017707
H 1.9421098 -0.031345792 1.0305657
H 1.3993622 1.3460081 -0.8881755
H 1.2850071 -0.24689296 -1.664703
H 0.24689963 -1.9223347 0.74416906
H -1.5473112 -1.4843055 0.6443699
H -1.0541795 0.54980016 1.666125
H -1.1596018 0.9886445 -1.8620114
