14

O 2.2057893 -0.2772072 0.13067497
C 1.2193102 0.26969713 -0.7007004
C -0.16388334 0.09937922 -0.10021116
C -0.50669014 -1.1449033 0.6540345
N -0.19860177 0.097178675 1.3635703
C -1.3122013 0.7474741 -0.7925624
O -2.353194 1.0145034 -0.23717444
H 1.9392895 -0.034834407 1.0376099
H 1.392559 1.3390946 -0.8772987
H 1.2772763 -0.24738054 -1.6616951
H 0.25453305 -1.9172404 0.7398783
H -1.5387233 -1.4768637 0.6369087
H -1.058379 0.54818064 1.6726359
H -1.1570843 0.98292166 -1.8656707
