14

O 2.2025468 -0.28102508 0.14449517
C 1.211791 0.26962587 -0.69808203
C -0.16246508 0.09515832 -0.10495285
C -0.5091189 -1.1459984 0.6582045
N -0.1982706 0.10163751 1.355364
C -1.3104072 0.7485269 -0.792405
O -2.357574 1.0166427 -0.23144454
H 1.9420923 -0.03407702 1.038685
H 1.3920025 1.3352113 -0.8854625
H 1.2843273 -0.24006584 -1.6675798
H 0.24951294 -1.9151288 0.7444736
H -1.534241 -1.4873396 0.64335346
H -1.0518156 0.5472535 1.6689318
H -1.158381 0.9895787 -1.873581
