14

O 1.0358963 -0.40056148 -1.9350973
C 0.3237091 0.55325276 -1.2229766
C 1.1115731 -0.33647525 0.9516489
C 0.025699422 0.068329014 0.19249915
N -0.8711735 -1.1025642 0.16567497
C -1.2197458 0.95951116 0.86220574
O -1.4378588 1.6055176 1.7996714
H -1.9059749 -0.027668813 0.35597166
H 0.9473778 -0.728622 1.9668182
H -0.60746515 0.8657191 -1.7057215
H -0.968037 -1.432069 1.124832
H 0.46819657 -1.1798995 -1.9703028
H 2.1225107 -0.3009123 0.59364754
H 0.97529227 1.456443 -1.1788715
