14

O 2.2001312 -0.28074422 0.140163
C 1.2166681 0.27388546 -0.7065628
C -0.15391134 0.09585013 -0.10381042
C -0.5066163 -1.1385704 0.6594523
N -0.20038973 0.09838774 1.3598095
C -1.3119335 0.75097716 -0.79373986
O -2.3499835 1.0206786 -0.2325314
H 1.9398935 -0.032808855 1.038409
H 1.3926564 1.3403906 -0.8891554
H 1.2849884 -0.2534747 -1.6560249
H 0.25370866 -1.9199039 0.7359252
H -1.5405699 -1.4784849 0.6479097
H -1.0635158 0.5448055 1.6658053
H -1.1611265 0.9790116 -1.8656495
