14

O 0.2584269 2.2629886 -1.3671633
C -0.7261273 -0.11968306 1.1828341
C 1.6111202 -0.25751346 0.2899058
C -0.22470863 1.3209506 -0.9331892
N -0.07077932 -0.8926838 -1.0220909
C 0.29003224 0.01616773 0.040152628
O -2.0446074 -0.10274465 0.7077218
H -0.84285927 0.33238456 -1.5549244
H 1.9853312 -0.50990677 1.2742022
H 0.6423549 -0.81838644 -1.764612
H -2.093764 -0.81103307 0.06960943
H 2.3383002 -0.14417998 -0.53789675
H -0.61617553 0.74974734 1.8820517
H -0.50654405 -1.0261074 1.7333987
