14

O -1.4996457 0.8504358 -2.0210204
C -0.89873654 0.10734869 -1.3490027
C -0.47469938 -0.7840898 1.0669484
C 0.044676967 0.24981116 0.06286006
N 1.1977692 -0.24279132 -0.66209733
C 0.3762563 1.513174 0.5346914
O -0.5179186 -2.032091 0.44424468
H 0.3773873 -2.1957774 0.09191228
H 0.048169997 -0.68236804 -1.6366252
H 0.32276502 1.7757381 1.5925006
H 0.77853626 2.2445116 -0.16223307
H 1.5215298 0.49997628 -1.268212
H -1.4802537 -0.54871136 1.391302
H 0.20416294 -0.75516695 1.9147309
