14

O 2.2015014 -0.2765238 0.13873486
C 1.2149235 0.2684166 -0.69964343
C -0.16549215 0.09930296 -0.10547619
C -0.5097497 -1.1505796 0.6592777
N -0.20159796 0.09192307 1.3544565
C -1.3158088 0.751964 -0.79774225
O -2.3437366 1.0132974 -0.22988401
H 1.9422821 -0.027871374 1.0345843
H 1.4002874 1.334879 -0.8859049
H 1.29062 -0.24736379 -1.6574998
H 0.24866858 -1.9184766 0.7361004
H -1.5431814 -1.4798502 0.64592373
H -1.0587226 0.5509089 1.6681399
H -1.1599934 0.989973 -1.8610666
