14

O 2.2008398 -0.2831339 0.13082768
C 1.2141736 0.26669794 -0.700779
C -0.15776642 0.09321751 -0.09833251
C -0.5087759 -1.147989 0.65914935
N -0.19627921 0.096334346 1.3531051
C -1.3112973 0.7444153 -0.78779787
O -2.3483987 1.021431 -0.23518278
H 1.9421124 -0.033147622 1.0420855
H 1.3971246 1.3438326 -0.8833752
H 1.2808645 -0.24318135 -1.6653603
H 0.24977317 -1.9166943 0.7409183
H -1.5447799 -1.4842553 0.6391817
H -1.056307 0.549585 1.6652381
H -1.1612836 0.99288815 -1.8596779
