14

O 2.1996922 -0.27830136 0.13240345
C 1.2148641 0.26623014 -0.70187
C -0.16618307 0.092329435 -0.099220335
C -0.5041918 -1.1396725 0.65660244
N -0.20144944 0.09055278 1.3605125
C -1.3109671 0.7502988 -0.78936327
O -2.3462982 1.0099235 -0.22384247
H 1.9422768 -0.029730586 1.0356979
H 1.40024 1.3406978 -0.88106316
H 1.2806972 -0.24392767 -1.6672581
H 0.252302 -1.9227827 0.7374579
H -1.5395828 -1.474591 0.6394599
H -1.058451 0.5425318 1.6636575
H -1.1629492 0.9964415 -1.8631744
