14

O -0.4806349 -2.5310924 -2.8909562
C -1.7023563 -2.8757548 -3.4978378
C -2.7750545 -3.1924098 -2.4737494
C -3.4364893 -4.3458967 -2.4224174
N -2.9151855 -2.1419885 -1.539819
C 15.159623 18.396994 15.807749
O 14.57013 17.919933 14.966034
H -0.706083 -2.1382573 -2.0297496
H -2.0552258 -2.0615573 -4.152122
H -1.5347083 -3.748507 -4.139363
H -3.1816251 -5.1621075 -3.0982528
H -4.2174816 -4.534721 -1.6983776
H -3.6109097 -2.3306477 -0.8359306
H -3.1139991 -1.2539878 -1.9952053
