14

O 1.2564758 -1.7617741 -0.14093997
C -0.646763 1.1763033 0.93217057
C 0.51873374 -1.0411929 0.79074395
C -0.14913647 0.1774226 0.14714277
N 0.7925614 0.83837306 -0.7707173
C -1.0543518 -0.38800928 -1.2100291
O -2.1535704 -0.22158411 -1.574609
H 0.11785339 -0.11175819 -1.7737283
H 1.8350195 -1.1337827 -0.5969267
H -1.0911403 2.0613074 0.47847894
H 0.33081234 1.6746784 -1.1274185
H 1.1427189 -0.66354585 1.612033
H -0.65999275 1.1165502 2.0385
H -0.2392204 -1.7229878 1.1952997
