14

O -0.48118454 -2.532082 -2.8857658
C -1.7046583 -2.8738728 -3.50519
C -2.7746844 -3.195147 -2.4822457
C -3.4370472 -4.3510375 -2.420967
N -2.9166076 -2.1450996 -1.5423709
C 15.162477 18.391478 15.801602
O 14.567168 17.917355 14.964258
H -0.7004754 -2.12199 -2.0302331
H -2.04938 -2.057179 -4.145517
H -1.5315503 -3.7462187 -4.1435647
H -3.1850238 -5.1667953 -3.0945928
H -4.2209272 -4.529282 -1.6980389
H -3.6143174 -2.3343785 -0.8354981
H -3.1137898 -1.2557505 -1.9818747
