14

O -0.4819327 -2.5263293 -2.8800871
C -1.7059414 -2.8807864 -3.4957764
C -2.7702951 -3.1896973 -2.4848902
C -3.4329007 -4.347406 -2.4275231
N -2.9134376 -2.1447458 -1.5425276
C 15.1555395 18.395138 15.8032255
O 14.5668955 17.914396 14.957652
H -0.712031 -2.1386871 -2.0304193
H -2.055094 -2.0585515 -4.143536
H -1.5294431 -3.7489917 -4.135688
H -3.1867304 -5.159364 -3.094683
H -4.219654 -4.525273 -1.700078
H -3.608758 -2.3335226 -0.83089703
H -3.1062171 -1.2561796 -1.9947696
