14

O -0.47695178 -2.5263186 -2.8920689
C -1.7061355 -2.8757057 -3.497376
C -2.7709174 -3.1925545 -2.4765973
C -3.4320858 -4.3446813 -2.4326906
N -2.9169738 -2.1500633 -1.5391275
C 15.16407 18.389807 15.809739
O 14.563794 17.918184 14.96253
H -0.71284336 -2.1347048 -2.029938
H -2.05429 -2.0531974 -4.1439075
H -1.5341598 -3.7463899 -4.1455636
H -3.1887197 -5.159365 -3.101416
H -4.2167892 -4.5386786 -1.6913658
H -3.602637 -2.3334935 -0.8325734
H -3.1153607 -1.252838 -1.9896431
