14

O -0.47485095 -2.5358088 -2.889241
C -1.7101479 -2.8816833 -3.5001605
C -2.772098 -3.190401 -2.4759982
C -3.4379091 -4.3487816 -2.4242265
N -2.9052997 -2.1406853 -1.5399519
C 15.157089 18.396278 15.809933
O 14.564612 17.922411 14.9586735
H -0.70727044 -2.1402326 -2.0353897
H -2.057834 -2.0531657 -4.1453266
H -1.5339574 -3.7449665 -4.149873
H -3.1846018 -5.1672044 -3.0968263
H -4.2198434 -4.5283933 -1.6899934
H -3.605944 -2.3321133 -0.83102214
H -3.1119456 -1.2552545 -1.9905958
