14

O -0.4835283 -2.5336826 -2.8862658
C -1.7037705 -2.8774579 -3.497714
C -2.7667189 -3.1896605 -2.48094
C -3.4345236 -4.3497634 -2.423922
N -2.9025211 -2.1424468 -1.5457723
C 15.161326 18.388088 15.807676
O 14.567667 17.920252 14.955768
H -0.7084181 -2.1345818 -2.029569
H -2.0686448 -2.0627146 -4.1471906
H -1.5267774 -3.7439177 -4.1449733
H -3.186032 -5.1623464 -3.101137
H -4.2259555 -4.524526 -1.6919773
H -3.6100378 -2.3374662 -0.83483064
H -3.1120658 -1.2497758 -1.9791509
