14

O -0.47955236 -2.5306244 -2.8873177
C -1.7019126 -2.8809514 -3.4933977
C -2.7835698 -3.1871505 -2.4824538
C -3.4379437 -4.354373 -2.4327407
N -2.9107528 -2.1434991 -1.5421538
C 15.154143 18.391285 15.807351
O 14.569933 17.920849 14.956355
H -0.7022075 -2.1407816 -2.038186
H -2.0504737 -2.0572836 -4.1484847
H -1.5307732 -3.7470498 -4.1356754
H -3.1851394 -5.1607003 -3.090245
H -4.221571 -4.5261145 -1.6918913
H -3.6077273 -2.3289304 -0.838212
H -3.1124523 -1.2546755 -1.9829451
