14

O 0.8231239 2.0938396 -1.187828
C -0.26092538 -0.027314141 -0.1162433
C 0.72914207 1.4297224 -0.19993883
C 0.5237146 -0.9922469 0.78627527
N -0.35427862 -0.48890594 -1.3992263
C -1.5474244 0.3574117 0.3083977
O 1.7329282 -1.3403822 0.17273554
H -0.10281194 -1.8699279 0.9293355
H -0.7670951 0.26002353 -1.9765135
H -2.0717077 -0.071754955 1.1484586
H 1.0914171 1.6174718 0.80729693
H 1.4970504 -1.5296826 -0.74503106
H 0.77335674 -0.5493722 1.7709852
H -2.0664895 1.1111175 -0.2987041
