14

O 2.198843 -0.27655834 0.13090906
C 1.2211916 0.2738788 -0.6977985
C -0.16612811 0.08768438 -0.097282395
C -0.50556654 -1.1451088 0.65817404
N -0.19837311 0.09398121 1.3486724
C -1.306319 0.74925685 -0.7926386
O -2.350923 1.0158795 -0.2272518
H 1.9395767 -0.035809327 1.0369027
H 1.3939315 1.3304673 -0.8795858
H 1.2730657 -0.23843421 -1.6673464
H 0.2521409 -1.9131093 0.73523605
H -1.5416985 -1.4811716 0.64177316
H -1.0525124 0.5506904 1.6688582
H -1.1572285 0.9883532 -1.858622
