14

O 2.1909597 -0.27787048 0.14274676
C 1.2130364 0.27347738 -0.7090566
C -0.15781672 0.09072619 -0.10195791
C -0.50529605 -1.1465513 0.65796876
N -0.19632961 0.09359751 1.3606657
C -1.3042338 0.7495907 -0.7881062
O -2.3518794 1.0146595 -0.23217449
H 1.9415648 -0.030905537 1.0402061
H 1.3989105 1.3357254 -0.8837869
H 1.2794039 -0.24333213 -1.6592276
H 0.25163716 -1.9149697 0.74002314
H -1.5434732 -1.4762768 0.6365593
H -1.0562071 0.5436811 1.6658752
H -1.1602764 0.9884479 -1.8697354
