14

O -0.47726712 -2.5290215 -2.8835618
C -1.7056006 -2.8784118 -3.4996264
C -2.7756634 -3.1871104 -2.4772623
C -3.4412723 -4.3436832 -2.4217687
N -2.9100692 -2.1459599 -1.5339411
C 15.165324 18.38366 15.804567
O 14.570676 17.919033 14.958573
H -0.70912856 -2.1346729 -2.0326586
H -2.053662 -2.0554438 -4.152362
H -1.5320215 -3.7494543 -4.1420193
H -3.1885133 -5.1613073 -3.098795
H -4.214927 -4.5261774 -1.6977612
H -3.6143143 -2.3341992 -0.8323639
H -3.113559 -1.2572536 -1.9910197
