14

O -0.28777456 1.4261237 -1.6665703
C -0.65557474 -0.7538879 1.4091575
C 0.12959637 0.1001606 0.26669857
C -0.8860153 0.94412607 -0.46768638
N 1.2969775 0.77808195 0.516069
C 0.49446824 -1.1606194 -0.48415902
O -0.53540796 -0.86898404 2.5731683
H 1.9300238 0.11838761 0.9976253
H 1.1932572 -1.8408294 0.018453216
H 0.5865575 -1.097906 -1.5724113
H -1.7765399 0.38413507 -0.7608183
H -0.7971518 -1.630502 0.36378953
H -1.1961735 1.7764572 0.18518788
H 0.5037571 1.8252566 -1.3785043
