14

O 0.60991096 1.5519502 1.3479285
C 1.3397176 0.09353591 -0.94461185
C -1.2376891 -0.7643399 -0.78096443
C -0.471339 1.1507106 0.58551556
N 0.4239735 -1.13079 0.7036253
C -0.1723387 -0.14560112 -0.19169697
O 1.7757287 0.004718655 -2.004837
H 0.8522141 0.8270041 1.9240996
H 1.7360928 -0.45869747 0.16818994
H -0.7134388 1.9626392 -0.11180627
H 0.546974 -1.9873079 0.15463221
H -1.0774952 -1.6946757 -1.3254657
H -1.3581389 0.96073264 1.2145169
H -2.2541718 -0.36987948 -0.7391258
