14

O -1.6898988 -0.7227898 -1.2531437
C 0.39314863 -1.302541 0.6362097
C 0.21310581 -0.06903326 0.062082898
C 1.3380768 1.2218115 0.1887998
N -0.62040275 0.6272832 1.0394398
C -0.4568906 -0.032778986 -1.3013625
O 2.4405425 1.4077694 0.47982994
H 0.13577755 -2.2191718 0.12314593
H 0.82191133 -1.3959348 1.6376839
H -2.2012303 -0.32156518 -0.57149684
H 0.24178864 1.8049821 0.6259559
H -0.59727293 1.0092275 -1.5886732
H -0.17111252 0.52621925 1.9514982
H 0.1524566 -0.53347874 -2.0299697
