14

O -1.2376641 -1.3500415 -1.2514017
C -0.15135147 1.2955204 -0.7560403
C 0.15602975 0.17327668 -0.03701219
C 1.4098955 0.15463665 1.0935737
N -0.7985046 0.20512298 1.1065582
C 0.025576513 -1.1909733 -0.71659803
O 2.3662593 0.78220856 1.3568043
H -0.7439173 1.1410811 1.5220321
H -0.46272287 1.2261046 -1.7930655
H -0.12049728 2.2708256 -0.29213253
H 0.41798994 -0.3051346 1.8486067
H 0.2663016 -1.971999 0.011998225
H 0.74196005 -1.2378894 -1.54024
H -1.8693548 -1.1927387 -0.5530831
