14

O 2.2003639 -0.28126502 0.13622957
C 1.2186123 0.27303797 -0.69762576
C -0.16819762 0.09149071 -0.10342025
C -0.5132432 -1.1399149 0.65740955
N -0.19115067 0.090307966 1.360276
C -1.3090372 0.7582589 -0.78731173
O -2.3478703 1.0192084 -0.23443697
H 1.9440726 -0.027859053 1.039744
H 1.3883649 1.3389633 -0.88669497
H 1.2858098 -0.24718992 -1.6700441
H 0.24968858 -1.9199398 0.73534274
H -1.5422841 -1.4810767 0.6457098
H -1.0500025 0.54330117 1.6655383
H -1.1651266 0.98267686 -1.8607165
