14

O -0.4813713 -2.5303178 -2.89053
C -1.7051642 -2.8832264 -3.5031073
C -2.766771 -3.1925488 -2.475566
C -3.4288335 -4.3351936 -2.421485
N -2.9078538 -2.1473198 -1.5428634
C 15.160189 18.394228 15.805326
O 14.567504 17.916374 14.962277
H -0.70695317 -2.1335297 -2.03465
H -2.0591688 -2.0532484 -4.1441164
H -1.5355492 -3.7562308 -4.143008
H -3.1901863 -5.1600165 -3.0979621
H -4.2207093 -4.527849 -1.691579
H -3.6174328 -2.331032 -0.8322499
H -3.1076992 -1.2600925 -1.9904842
