14

O -0.46706754 1.5496452 -1.4509428
C -0.55478567 -1.1744776 1.0300435
C -1.04334 0.44250852 -0.82798064
C 1.4250531 -0.48068684 -0.70013416
N 0.5646993 0.83171463 0.9708161
C -0.07533542 -0.2169896 0.15284988
O 2.1846912 -1.3769332 -0.8362523
H -0.15855539 2.1041162 -0.7397668
H -1.9452672 0.7011102 -0.25984237
H 1.6406368 0.6820935 -0.18611702
H 1.1791971 0.32111713 1.6184483
H 0.17199996 -1.5985837 1.7758919
H -1.5936996 -1.504616 1.06618
H -1.3282264 -0.2800182 -1.6131939
