14

O -0.4831597 -2.5295532 -2.8872104
C -1.7087103 -2.868753 -3.4997675
C -2.7752612 -3.1867924 -2.4795725
C -3.438266 -4.346094 -2.4230745
N -2.9106665 -2.1467168 -1.5368516
C 15.169771 18.395872 15.80764
O 14.573761 17.919497 14.961762
H -0.70492107 -2.1381288 -2.0324893
H -2.0539746 -2.060058 -4.1477566
H -1.5308489 -3.7515545 -4.141372
H -3.1860812 -5.1600413 -3.0961668
H -4.225343 -4.540261 -1.6964095
H -3.611843 -2.3326738 -0.8364787
H -3.1144545 -1.2547418 -1.9922513
