14

O 2.199807 -0.27441743 0.1326928
C 1.2188373 0.26545465 -0.7047687
C -0.16285881 0.08483909 -0.09684238
C -0.5059578 -1.1471124 0.6524965
N -0.20165654 0.09558404 1.356549
C -1.3063164 0.7510533 -0.79191774
O -2.3531601 1.0182345 -0.22877924
H 1.9362799 -0.02871124 1.0361253
H 1.3971454 1.3438165 -0.8817508
H 1.2825556 -0.24591878 -1.657455
H 0.25306967 -1.9189618 0.73477316
H -1.5403497 -1.4798995 0.63653576
H -1.0605409 0.54770374 1.6693068
H -1.1568546 0.9883353 -1.8569654
