14

O -0.48290414 -2.5271044 -2.8811004
C -1.7035956 -2.8755584 -3.5008457
C -2.7754264 -3.191135 -2.4745448
C -3.4305897 -4.352933 -2.4281647
N -2.9105937 -2.143683 -1.5477147
C 15.157224 18.382555 15.810209
O 14.566789 17.921387 14.959475
H -0.70525664 -2.1320786 -2.031303
H -2.053526 -2.062334 -4.1458154
H -1.528585 -3.7406452 -4.13788
H -3.187623 -5.165423 -3.0974958
H -4.2143345 -4.5296516 -1.6975554
H -3.6099303 -2.3287482 -0.8391605
H -3.121647 -1.2546474 -1.9881018
