14

O 0.6530114 -2.6157775 -0.33955625
C 0.7740527 -1.4485693 -0.28471714
C -0.27126202 -0.04897171 0.031636577
C -1.6186521 -0.2889765 0.16737276
N 0.014629171 0.38840854 -1.3225447
C 0.42961302 0.8547846 1.021563
O 1.7376368 1.1211907 0.6154234
H -0.5620247 -0.15016676 -1.9668761
H -0.16164677 1.7746993 1.1062186
H 1.1986685 -0.6042396 -1.2331179
H -2.1435647 -0.90876794 -0.549231
H 0.46871966 0.36248398 2.012403
H 1.6783041 1.472 -0.27513233
H -2.1974854 0.09190221 1.0165577
