14

O -0.4781662 -2.532401 -2.891916
C -1.711616 -2.8803585 -3.499031
C -2.7739196 -3.1878583 -2.4758914
C -3.4340148 -4.3425474 -2.426628
N -2.9101868 -2.1430812 -1.5317689
C 15.165855 18.392365 15.79533
O 14.578038 17.916075 14.964214
H -0.7071058 -2.1403081 -2.0308945
H -2.057419 -2.0647585 -4.1489944
H -1.5341448 -3.744393 -4.1345577
H -3.1910567 -5.157674 -3.101172
H -4.2261505 -4.5333543 -1.6947104
H -3.605831 -2.3315876 -0.8371516
H -3.114281 -1.2501155 -1.986826
