14

O -0.48319116 -2.528197 -2.891994
C -1.7049464 -2.8781147 -3.4910731
C -2.7738814 -3.1868634 -2.4794075
C -3.4382572 -4.351331 -2.4287167
N -2.908771 -2.1463418 -1.5422844
C 15.15494 18.395905 15.805683
O 14.567111 17.919107 14.957884
H -0.7091243 -2.1334229 -2.0324636
H -2.0577607 -2.0569382 -4.138716
H -1.5254104 -3.7479868 -4.143427
H -3.184248 -5.163222 -3.0998936
H -4.2171874 -4.530641 -1.6958867
H -3.6084435 -2.3335817 -0.83440757
H -3.1108298 -1.2583714 -1.9852972
