14

O -1.9022033 1.662721 -1.2333676
C -0.015193839 0.14319506 -0.25188792
C 0.55215245 0.44387734 1.1123024
C -1.4558287 0.8732113 -0.485231
N 0.87052536 0.09589964 -1.353627
C -0.68657744 -1.1682959 -0.36455444
O 1.5750877 -0.49103147 1.4110403
H 0.95413333 1.4733905 1.1148859
H -0.17452265 0.38409266 1.9069048
H 1.5104959 0.86872894 -1.3552761
H -1.0547891 -1.4444634 -1.3730366
H -0.29562402 -1.9850224 0.2537901
H 2.0761554 -0.6043958 0.5950361
H -1.9538112 -0.25190774 0.023021273
