14

O -2.0018005 -0.04411944 0.97550315
C 0.18242104 0.1037263 0.01396186
C 1.6006385 -0.7908141 -0.18275642
C 0.20130683 1.4668323 -0.17470221
N -0.25269654 -0.3715225 -1.3032646
C -0.6623168 -0.45217955 1.111934
O 2.7292116 -0.6283269 -0.20036927
H -0.5798397 -1.5482496 1.1232628
H 0.7557853 -1.410649 -1.0142756
H 0.8066733 1.921989 -0.9600608
H -0.32552788 -0.07185907 2.0913246
H 0.26558295 0.04793856 -2.0344126
H -0.41740423 2.1393132 0.41133967
H -2.302034 -0.36207893 0.1425153
