14

O -0.47974038 -2.5352783 -2.8870368
C -1.7001505 -2.8775532 -3.49744
C -2.7725866 -3.1895125 -2.4770567
C -3.4388196 -4.339962 -2.4239192
N -2.906332 -2.1452599 -1.5388963
C 15.156554 18.390017 15.807722
O 14.5698395 17.919958 14.958763
H -0.7116072 -2.1316857 -2.0350842
H -2.0582266 -2.056051 -4.1397824
H -1.5268089 -3.7466838 -4.135485
H -3.1927612 -5.164607 -3.1009023
H -4.2180247 -4.534002 -1.6990616
H -3.6061242 -2.3377056 -0.8382307
H -3.115211 -1.2516764 -1.993588
